<?xml version="1.0" encoding="UTF-8"?>

<!-- generated on 2024-04-23 20:06:31.093204 by osmWebWizard.py v1_19_0+0000-baa66a0f364
<configuration>
    <net-file value="F:\SUMO\OptimalEmission-SUMO-ReinforcementLearning\2024-04-23-20-05-39\osm.net.xml.gz"/>
    <output-trip-file value="F:\SUMO\OptimalEmission-SUMO-ReinforcementLearning\2024-04-23-20-05-39\osm.motorcycle.trips.xml"/>
    <route-file value="F:\SUMO\OptimalEmission-SUMO-ReinforcementLearning\2024-04-23-20-05-39\osm.motorcycle.rou.xml"/>
    <prefix value="motorcycle"/>
    <trip-attributes value="departLane=&quot;best&quot;"/>
    <fringe-start-attributes value="departSpeed=&quot;max&quot;"/>
    <vehicle-class value="motorcycle"/>
    <fringe-factor value="2"/>
    <vclass value="motorcycle"/>
    <via-edge-types value="highway.motorway,highway.motorway_link,highway.trunk_link,highway.primary_link,highway.secondary_link,highway.tertiary_link"/>
    <max-distance value="1200.0"/>
    <remove-loops value="True"/>
    <validate value="True"/>
    <insertion-density value="4.0"/>
</configuration>
-->

<!-- generated on 2024-04-23 20:06:30 by Eclipse SUMO duarouter Version 1.19.0
<configuration xmlns:xsi="http://www.w3.org/2001/XMLSchema-instance" xsi:noNamespaceSchemaLocation="http://sumo.dlr.de/xsd/duarouterConfiguration.xsd">

    <input>
        <net-file value="F:\SUMO\OptimalEmission-SUMO-ReinforcementLearning\2024-04-23-20-05-39\osm.net.xml.gz"/>
        <route-files value="F:\SUMO\OptimalEmission-SUMO-ReinforcementLearning\2024-04-23-20-05-39\osm.motorcycle.trips.xml"/>
    </input>

    <output>
        <output-file value="F:\SUMO\OptimalEmission-SUMO-ReinforcementLearning\2024-04-23-20-05-39\osm.motorcycle.trips.xml.tmp"/>
        <alternatives-output value="NUL"/>
        <write-trips value="true"/>
    </output>

    <processing>
        <remove-loops value="true"/>
    </processing>

    <time>
        <begin value="0.0"/>
        <end value="3600.0"/>
    </time>

    <report>
        <no-warnings value="true"/>
        <ignore-errors value="true"/>
        <no-step-log value="true"/>
    </report>

</configuration>
-->

<routes xmlns:xsi="http://www.w3.org/2001/XMLSchema-instance" xsi:noNamespaceSchemaLocation="http://sumo.dlr.de/xsd/routes_file.xsd">
    <vType id="motorcycle_motorcycle" vClass="motorcycle"/>
    <trip id="motorcycle1" type="motorcycle_motorcycle" depart="1.97" departLane="best" departSpeed="max" from="679546137#0" to="-679546137#0"/>
    <trip id="motorcycle4" type="motorcycle_motorcycle" depart="7.88" departLane="best" from="679546140" to="-679546137#0"/>
    <trip id="motorcycle6" type="motorcycle_motorcycle" depart="11.82" departLane="best" departSpeed="max" from="-174962324#1" to="174962324#1"/>
    <trip id="motorcycle7" type="motorcycle_motorcycle" depart="13.79" departLane="best" departSpeed="max" from="679546137#0" to="679546137#2"/>
    <trip id="motorcycle9" type="motorcycle_motorcycle" depart="17.73" departLane="best" departSpeed="max" from="545622325#0" to="-679546129#1"/>
    <trip id="motorcycle10" type="motorcycle_motorcycle" depart="19.70" departLane="best" departSpeed="max" from="173769010" to="-173769010"/>
    <trip id="motorcycle18" type="motorcycle_motorcycle" depart="35.45" departLane="best" departSpeed="max" from="263520955" to="10624427"/>
    <trip id="motorcycle19" type="motorcycle_motorcycle" depart="37.42" departLane="best" departSpeed="max" from="59561907#0" to="-173769010"/>
    <trip id="motorcycle21" type="motorcycle_motorcycle" depart="41.36" departLane="best" departSpeed="max" from="24977984#0" to="-174962324#0"/>
    <trip id="motorcycle24" type="motorcycle_motorcycle" depart="47.27" departLane="best" departSpeed="max" from="263520955" to="10624427"/>
    <trip id="motorcycle28" type="motorcycle_motorcycle" depart="55.15" departLane="best" departSpeed="max" from="263520955" to="10624427"/>
    <trip id="motorcycle29" type="motorcycle_motorcycle" depart="57.12" departLane="best" departSpeed="max" from="-209355884#1" to="209355884#1"/>
    <trip id="motorcycle32" type="motorcycle_motorcycle" depart="63.03" departLane="best" from="679546140" to="679546137#1"/>
    <trip id="motorcycle33" type="motorcycle_motorcycle" depart="64.99" departLane="best" departSpeed="max" from="314786388" to="1160222017"/>
    <trip id="motorcycle35" type="motorcycle_motorcycle" depart="68.93" departLane="best" departSpeed="max" from="679546129#0" to="-679546129#0"/>
    <trip id="motorcycle37" type="motorcycle_motorcycle" depart="72.87" departLane="best" from="-23259236#1" to="-23259236#0"/>
    <trip id="motorcycle38" type="motorcycle_motorcycle" depart="74.84" departLane="best" departSpeed="max" from="101944010" to="1151525002#0"/>
    <trip id="motorcycle47" type="motorcycle_motorcycle" depart="92.57" departLane="best" from="941977929" to="1181205658"/>
    <trip id="motorcycle56" type="motorcycle_motorcycle" depart="110.29" departLane="best" departSpeed="max" from="-727363723" to="727363723"/>
    <trip id="motorcycle58" type="motorcycle_motorcycle" depart="114.23" departLane="best" from="-257748245#1" to="-257748245#0"/>
    <trip id="motorcycle61" type="motorcycle_motorcycle" depart="120.14" departLane="best" departSpeed="max" from="174962324#0" to="-24977984#0"/>
    <trip id="motorcycle62" type="motorcycle_motorcycle" depart="122.11" departLane="best" departSpeed="max" from="26623835" to="-318927940"/>
    <trip id="motorcycle63" type="motorcycle_motorcycle" depart="124.08" departLane="best" from="679546140" to="-679546137#0"/>
    <trip id="motorcycle64" type="motorcycle_motorcycle" depart="126.05" departLane="best" departSpeed="max" from="-1151525003" to="-23259236#0"/>
    <trip id="motorcycle65" type="motorcycle_motorcycle" depart="128.02" departLane="best" departSpeed="max" from="-306441277#1" to="738098433#1"/>
    <trip id="motorcycle69" type="motorcycle_motorcycle" depart="135.90" departLane="best" departSpeed="max" from="739711966" to="-739711966"/>
    <trip id="motorcycle74" type="motorcycle_motorcycle" depart="145.75" departLane="best" departSpeed="max" from="-318927946" to="318927945"/>
    <trip id="motorcycle75" type="motorcycle_motorcycle" depart="147.72" departLane="best" departSpeed="max" from="173769010" to="-59561907#0"/>
    <trip id="motorcycle77" type="motorcycle_motorcycle" depart="151.65" departLane="best" departSpeed="max" from="-1060576088" to="1060576088"/>
    <trip id="motorcycle81" type="motorcycle_motorcycle" depart="159.53" departLane="best" from="-679546140" to="679546137#2"/>
    <trip id="motorcycle82" type="motorcycle_motorcycle" depart="161.50" departLane="best" from="-679546137#1" to="-679546137#1"/>
    <trip id="motorcycle86" type="motorcycle_motorcycle" depart="169.38" departLane="best" departSpeed="max" from="-679546134" to="-679546132"/>
    <trip id="motorcycle87" type="motorcycle_motorcycle" depart="171.35" departLane="best" departSpeed="max" from="-679546137#2" to="679546137#2"/>
    <trip id="motorcycle93" type="motorcycle_motorcycle" depart="183.17" departLane="best" departSpeed="max" from="863364525" to="-863364525"/>
    <trip id="motorcycle97" type="motorcycle_motorcycle" depart="191.05" departLane="best" departSpeed="max" from="23259236#0" to="23259236#1"/>
    <trip id="motorcycle98" type="motorcycle_motorcycle" depart="193.01" departLane="best" departSpeed="max" from="27410071" to="-318918547"/>
    <trip id="motorcycle99" type="motorcycle_motorcycle" depart="194.98" departLane="best" departSpeed="max" from="738098433#0" to="-306441277#0"/>
    <trip id="motorcycle102" type="motorcycle_motorcycle" depart="200.89" departLane="best" from="679546138#1" to="-679546137#1"/>
    <trip id="motorcycle104" type="motorcycle_motorcycle" depart="204.83" departLane="best" departSpeed="max" from="59572778" to="-59572778"/>
    <trip id="motorcycle105" type="motorcycle_motorcycle" depart="206.80" departLane="best" departSpeed="max" from="679546129#0" to="-679546129#0"/>
    <trip id="motorcycle106" type="motorcycle_motorcycle" depart="208.77" departLane="best" from="-257748245#1" to="-257748245#0"/>
    <trip id="motorcycle107" type="motorcycle_motorcycle" depart="210.74" departLane="best" departSpeed="max" from="545622325#0" to="-679546129#1"/>
    <trip id="motorcycle109" type="motorcycle_motorcycle" depart="214.68" departLane="best" departSpeed="max" from="722792854" to="-722792854"/>
    <trip id="motorcycle110" type="motorcycle_motorcycle" depart="216.65" departLane="best" departSpeed="max" from="-1151525003" to="-23259236#1"/>
    <trip id="motorcycle112" type="motorcycle_motorcycle" depart="220.59" departLane="best" departSpeed="max" from="173769010" to="59561907#1"/>
    <trip id="motorcycle115" type="motorcycle_motorcycle" depart="226.50" departLane="best" departSpeed="max" from="-738098434" to="306441277#1"/>
    <trip id="motorcycle118" type="motorcycle_motorcycle" depart="232.41" departLane="best" from="-679546138#1" to="679546138#1"/>
    <trip id="motorcycle119" type="motorcycle_motorcycle" depart="234.37" departLane="best" departSpeed="max" from="-176797402" to="24977984#1"/>
    <trip id="motorcycle122" type="motorcycle_motorcycle" depart="240.28" departLane="best" departSpeed="max" from="679546132" to="-545622325#0"/>
    <trip id="motorcycle124" type="motorcycle_motorcycle" depart="244.22" departLane="best" departSpeed="max" from="-679546134" to="-679546129#0"/>
    <trip id="motorcycle125" type="motorcycle_motorcycle" depart="246.19" departLane="best" departSpeed="max" from="679546137#0" to="679546138#1"/>
    <trip id="motorcycle129" type="motorcycle_motorcycle" depart="254.07" departLane="best" departSpeed="max" from="679546138#0" to="-679546137#1"/>
    <trip id="motorcycle132" type="motorcycle_motorcycle" depart="259.98" departLane="best" from="679546129#1" to="679546129#1"/>
    <trip id="motorcycle133" type="motorcycle_motorcycle" depart="261.95" departLane="best" departSpeed="max" from="679546129#0" to="-679546129#0"/>
    <trip id="motorcycle134" type="motorcycle_motorcycle" depart="263.92" departLane="best" departSpeed="max" from="-306441277#1" to="-306441277#0"/>
    <trip id="motorcycle137" type="motorcycle_motorcycle" depart="269.83" departLane="best" departSpeed="max" from="26623835" to="-318927940"/>
    <trip id="motorcycle139" type="motorcycle_motorcycle" depart="273.77" departLane="best" departSpeed="max" from="739711966" to="26380490"/>
    <trip id="motorcycle141" type="motorcycle_motorcycle" depart="277.70" departLane="best" departSpeed="max" from="-1151525002#1" to="-1151525002#0"/>
    <trip id="motorcycle142" type="motorcycle_motorcycle" depart="279.67" departLane="best" from="-257748245#1" to="257748245#1"/>
    <trip id="motorcycle144" type="motorcycle_motorcycle" depart="283.61" departLane="best" departSpeed="max" from="738098433#0" to="-306441277#0"/>
    <trip id="motorcycle145" type="motorcycle_motorcycle" depart="285.58" departLane="best" departSpeed="max" from="196364906" to="318927945"/>
    <trip id="motorcycle148" type="motorcycle_motorcycle" depart="291.49" departLane="best" departSpeed="max" from="-318927946" to="318927945"/>
    <trip id="motorcycle150" type="motorcycle_motorcycle" depart="295.43" departLane="best" departSpeed="max" from="-415191919#1" to="-415191919#0"/>
    <trip id="motorcycle151" type="motorcycle_motorcycle" depart="297.40" departLane="best" departSpeed="max" from="-679546137#2" to="679546140"/>
    <trip id="motorcycle152" type="motorcycle_motorcycle" depart="299.37" departLane="best" departSpeed="max" from="443049345" to="727363723"/>
    <trip id="motorcycle155" type="motorcycle_motorcycle" depart="305.28" departLane="best" from="-679546129#1" to="-679546132"/>
    <trip id="motorcycle156" type="motorcycle_motorcycle" depart="307.25" departLane="best" departSpeed="max" from="679546138#0" to="679546140"/>
    <trip id="motorcycle163" type="motorcycle_motorcycle" depart="321.03" departLane="best" from="679546137#1" to="679546137#2"/>
    <trip id="motorcycle165" type="motorcycle_motorcycle" depart="324.97" departLane="best" departSpeed="max" from="679546138#0" to="-679546137#1"/>
    <trip id="motorcycle173" type="motorcycle_motorcycle" depart="340.73" departLane="best" departSpeed="max" from="-59561907#1" to="-173769010"/>
    <trip id="motorcycle176" type="motorcycle_motorcycle" depart="346.64" departLane="best" departSpeed="max" from="679546138#0" to="679546138#1"/>
    <trip id="motorcycle177" type="motorcycle_motorcycle" depart="348.61" departLane="best" departSpeed="max" from="246358907" to="-246358907"/>
    <trip id="motorcycle180" type="motorcycle_motorcycle" depart="354.52" departLane="best" from="941977929" to="1181205658"/>
    <trip id="motorcycle181" type="motorcycle_motorcycle" depart="356.49" departLane="best" departSpeed="max" from="314786388" to="1160222017"/>
    <trip id="motorcycle185" type="motorcycle_motorcycle" depart="364.36" departLane="best" departSpeed="max" from="-1151525003" to="-23259236#1"/>
    <trip id="motorcycle186" type="motorcycle_motorcycle" depart="366.33" departLane="best" departSpeed="max" from="-306441277#1" to="738098433#1"/>
    <trip id="motorcycle187" type="motorcycle_motorcycle" depart="368.30" departLane="best" departSpeed="max" from="27410071" to="-318918547"/>
    <trip id="motorcycle189" type="motorcycle_motorcycle" depart="372.24" departLane="best" departSpeed="max" from="174962324#0" to="174962324#1"/>
    <trip id="motorcycle193" type="motorcycle_motorcycle" depart="380.12" departLane="best" departSpeed="max" from="739711966" to="-739711966"/>
    <trip id="motorcycle194" type="motorcycle_motorcycle" depart="382.09" departLane="best" departSpeed="max" from="173769010" to="-173769010"/>
    <trip id="motorcycle195" type="motorcycle_motorcycle" depart="384.06" departLane="best" from="679546137#1" to="-679546137#1"/>
    <trip id="motorcycle197" type="motorcycle_motorcycle" depart="388.00" departLane="best" departSpeed="max" from="679546138#0" to="-679546137#0"/>
    <trip id="motorcycle198" type="motorcycle_motorcycle" depart="389.97" departLane="best" from="-192323437" to="-24977984#0"/>
    <trip id="motorcycle201" type="motorcycle_motorcycle" depart="395.88" departLane="best" from="-679546129#1" to="-679546132"/>
    <trip id="motorcycle204" type="motorcycle_motorcycle" depart="401.79" departLane="best" departSpeed="max" from="415191919#0" to="-415191919#0"/>
    <trip id="motorcycle205" type="motorcycle_motorcycle" depart="403.75" departLane="best" departSpeed="max" from="173769010" to="59561907#1"/>
    <trip id="motorcycle207" type="motorcycle_motorcycle" depart="407.69" departLane="best" departSpeed="max" from="7996430" to="503237958"/>
    <trip id="motorcycle212" type="motorcycle_motorcycle" depart="417.54" departLane="best" departSpeed="max" from="24977984#0" to="192323437"/>
    <trip id="motorcycle213" type="motorcycle_motorcycle" depart="419.51" departLane="best" from="257748245#2" to="-257748245#0"/>
    <trip id="motorcycle219" type="motorcycle_motorcycle" depart="431.33" departLane="best" departSpeed="max" from="318709475" to="1160222017"/>
    <trip id="motorcycle223" type="motorcycle_motorcycle" depart="439.21" departLane="best" from="192323437" to="-174962324#0"/>
    <trip id="motorcycle225" type="motorcycle_motorcycle" depart="443.15" departLane="best" departSpeed="max" from="-306441277#1" to="-306441277#0"/>
    <trip id="motorcycle228" type="motorcycle_motorcycle" depart="449.05" departLane="best" departSpeed="max" from="266113221" to="-1172037593"/>
    <trip id="motorcycle230" type="motorcycle_motorcycle" depart="452.99" departLane="best" departSpeed="max" from="679546129#0" to="679546129#1"/>
    <trip id="motorcycle231" type="motorcycle_motorcycle" depart="454.96" departLane="best" from="679546138#1" to="-679546140"/>
    <trip id="motorcycle233" type="motorcycle_motorcycle" depart="458.90" departLane="best" departSpeed="max" from="-306441277#1" to="-306441277#0"/>
    <trip id="motorcycle235" type="motorcycle_motorcycle" depart="462.84" departLane="best" departSpeed="max" from="96376624" to="96376628"/>
    <trip id="motorcycle239" type="motorcycle_motorcycle" depart="470.72" departLane="best" departSpeed="max" from="-1151525003" to="1151525003"/>
    <trip id="motorcycle253" type="motorcycle_motorcycle" depart="498.29" departLane="best" from="257748245#2" to="-257748245#2"/>
    <trip id="motorcycle257" type="motorcycle_motorcycle" depart="506.17" departLane="best" from="679546138#1" to="679546137#2"/>
    <trip id="motorcycle258" type="motorcycle_motorcycle" depart="508.14" departLane="best" departSpeed="max" from="679546138#0" to="679546140"/>
    <trip id="motorcycle263" type="motorcycle_motorcycle" depart="517.99" departLane="best" from="-679546129#1" to="679546129#1"/>
    <trip id="motorcycle264" type="motorcycle_motorcycle" depart="519.96" departLane="best" departSpeed="max" from="679546137#0" to="-679546138#0"/>
    <trip id="motorcycle267" type="motorcycle_motorcycle" depart="525.87" departLane="best" departSpeed="max" from="7996430" to="503237958"/>
    <trip id="motorcycle269" type="motorcycle_motorcycle" depart="529.81" departLane="best" departSpeed="max" from="174962324#0" to="-174962324#0"/>
    <trip id="motorcycle270" type="motorcycle_motorcycle" depart="531.77" departLane="best" departSpeed="max" from="-679546137#2" to="679546137#2"/>
    <trip id="motorcycle271" type="motorcycle_motorcycle" depart="533.74" departLane="best" departSpeed="max" from="-679546134" to="-679546132"/>
    <trip id="motorcycle272" type="motorcycle_motorcycle" depart="535.71" departLane="best" departSpeed="max" from="174962324#0" to="174962324#1"/>
    <trip id="motorcycle281" type="motorcycle_motorcycle" depart="553.44" departLane="best" departSpeed="max" from="26623835" to="-318927940"/>
    <trip id="motorcycle282" type="motorcycle_motorcycle" depart="555.41" departLane="best" departSpeed="max" from="-1151525003" to="-23259236#1"/>
    <trip id="motorcycle283" type="motorcycle_motorcycle" depart="557.38" departLane="best" departSpeed="max" from="738098433#0" to="-306441277#0"/>
    <trip id="motorcycle284" type="motorcycle_motorcycle" depart="559.35" departLane="best" from="679546129#1" to="545622325#1"/>
    <trip id="motorcycle286" type="motorcycle_motorcycle" depart="563.29" departLane="best" departSpeed="max" from="-318918548" to="318918545"/>
    <trip id="motorcycle290" type="motorcycle_motorcycle" depart="571.17" departLane="best" departSpeed="max" from="-59561907#1" to="59561907#1"/>
    <trip id="motorcycle296" type="motorcycle_motorcycle" depart="582.98" departLane="best" departSpeed="max" from="-1151525003" to="1151525003"/>
    <trip id="motorcycle299" type="motorcycle_motorcycle" depart="588.89" departLane="best" departSpeed="max" from="7996430" to="503237958"/>
    <trip id="motorcycle300" type="motorcycle_motorcycle" depart="590.86" departLane="best" departSpeed="max" from="545622325#0" to="-679546129#1"/>
    <trip id="motorcycle306" type="motorcycle_motorcycle" depart="602.68" departLane="best" departSpeed="max" from="679546129#0" to="-679546129#0"/>
    <trip id="motorcycle310" type="motorcycle_motorcycle" depart="610.56" departLane="best" departSpeed="max" from="679546132" to="-679546129#0"/>
    <trip id="motorcycle315" type="motorcycle_motorcycle" depart="620.40" departLane="best" departSpeed="max" from="318709475" to="9395409"/>
    <trip id="motorcycle317" type="motorcycle_motorcycle" depart="624.34" departLane="best" departSpeed="max" from="738098433#0" to="738098433#1"/>
    <trip id="motorcycle318" type="motorcycle_motorcycle" depart="626.31" departLane="best" from="-679546140" to="-679546137#1"/>
    <trip id="motorcycle322" type="motorcycle_motorcycle" depart="634.19" departLane="best" departSpeed="max" from="266113221" to="8081831"/>
    <trip id="motorcycle323" type="motorcycle_motorcycle" depart="636.16" departLane="best" departSpeed="max" from="33898828#0" to="-33898828#0"/>
    <trip id="motorcycle324" type="motorcycle_motorcycle" depart="638.13" departLane="best" from="-679546138#1" to="679546137#1"/>
    <trip id="motorcycle325" type="motorcycle_motorcycle" depart="640.10" departLane="best" departSpeed="max" from="196364906" to="318927945"/>
    <trip id="motorcycle327" type="motorcycle_motorcycle" depart="644.04" departLane="best" departSpeed="max" from="172117382" to="720021851"/>
    <trip id="motorcycle328" type="motorcycle_motorcycle" depart="646.01" departLane="best" from="-679546137#1" to="-679546140"/>
    <trip id="motorcycle329" type="motorcycle_motorcycle" depart="647.98" departLane="best" from="-192323437" to="-24977984#0"/>
    <trip id="motorcycle333" type="motorcycle_motorcycle" depart="655.86" departLane="best" departSpeed="max" from="-679546137#2" to="-679546137#1"/>
    <trip id="motorcycle340" type="motorcycle_motorcycle" depart="669.64" departLane="best" departSpeed="max" from="-415191919#1" to="415191919#1"/>
    <trip id="motorcycle341" type="motorcycle_motorcycle" depart="671.61" departLane="best" from="257748245#2" to="-257748245#2"/>
    <trip id="motorcycle345" type="motorcycle_motorcycle" depart="679.49" departLane="best" from="679546140" to="679546137#2"/>
    <trip id="motorcycle348" type="motorcycle_motorcycle" depart="685.40" departLane="best" departSpeed="max" from="10624375#0" to="10624415"/>
    <trip id="motorcycle353" type="motorcycle_motorcycle" depart="695.25" departLane="best" departSpeed="max" from="-738098433#1" to="-738098433#0"/>
    <trip id="motorcycle354" type="motorcycle_motorcycle" depart="697.22" departLane="best" departSpeed="max" from="545622325#0" to="545622325#1"/>
    <trip id="motorcycle355" type="motorcycle_motorcycle" depart="699.19" departLane="best" departSpeed="max" from="679546129#0" to="-679546129#0"/>
    <trip id="motorcycle358" type="motorcycle_motorcycle" depart="705.09" departLane="best" departSpeed="max" from="-174962324#1" to="-24977984#0"/>
    <trip id="motorcycle360" type="motorcycle_motorcycle" depart="709.03" departLane="best" departSpeed="max" from="739711966" to="-739711966"/>
    <trip id="motorcycle362" type="motorcycle_motorcycle" depart="712.97" departLane="best" departSpeed="max" from="96376624" to="96376628"/>
    <trip id="motorcycle363" type="motorcycle_motorcycle" depart="714.94" departLane="best" departSpeed="max" from="-174962324#1" to="-192323437"/>
    <trip id="motorcycle366" type="motorcycle_motorcycle" depart="720.85" departLane="best" departSpeed="max" from="545622325#0" to="-545622325#0"/>
    <trip id="motorcycle371" type="motorcycle_motorcycle" depart="730.70" departLane="best" departSpeed="max" from="154914015" to="1154086257#1"/>
    <trip id="motorcycle372" type="motorcycle_motorcycle" depart="732.67" departLane="best" departSpeed="max" from="415191919#0" to="-863364525"/>
    <trip id="motorcycle377" type="motorcycle_motorcycle" depart="742.52" departLane="best" departSpeed="max" from="173769010" to="-59561907#0"/>
    <trip id="motorcycle378" type="motorcycle_motorcycle" depart="744.48" departLane="best" departSpeed="max" from="679546138#0" to="-679546138#0"/>
    <trip id="motorcycle379" type="motorcycle_motorcycle" depart="746.45" departLane="best" departSpeed="max" from="679546138#0" to="679546140"/>
    <trip id="motorcycle380" type="motorcycle_motorcycle" depart="748.42" departLane="best" departSpeed="max" from="-679546134" to="545622325#1"/>
    <trip id="motorcycle381" type="motorcycle_motorcycle" depart="750.39" departLane="best" from="-257748245#1" to="-257748245#0"/>
    <trip id="motorcycle383" type="motorcycle_motorcycle" depart="754.33" departLane="best" departSpeed="max" from="-415191919#1" to="415191919#1"/>
    <trip id="motorcycle385" type="motorcycle_motorcycle" depart="758.27" departLane="best" departSpeed="max" from="59561907#0" to="-59561907#0"/>
    <trip id="motorcycle386" type="motorcycle_motorcycle" depart="760.24" departLane="best" departSpeed="max" from="9931907" to="-1164402632"/>
    <trip id="motorcycle387" type="motorcycle_motorcycle" depart="762.21" departLane="best" departSpeed="max" from="1111776067#0" to="1154086257#1"/>
    <trip id="motorcycle389" type="motorcycle_motorcycle" depart="766.15" departLane="best" departSpeed="max" from="-26380490" to="-739711966"/>
    <trip id="motorcycle394" type="motorcycle_motorcycle" depart="776.00" departLane="best" departSpeed="max" from="679546132" to="-679546132"/>
    <trip id="motorcycle400" type="motorcycle_motorcycle" depart="787.81" departLane="best" departSpeed="max" from="27410071" to="-318918547"/>
    <trip id="motorcycle402" type="motorcycle_motorcycle" depart="791.75" departLane="best" departSpeed="max" from="679546137#0" to="679546137#2"/>
    <trip id="motorcycle407" type="motorcycle_motorcycle" depart="801.60" departLane="best" departSpeed="max" from="545622325#0" to="-679546129#1"/>
    <trip id="motorcycle408" type="motorcycle_motorcycle" depart="803.57" departLane="best" departSpeed="max" from="59561907#0" to="59561907#1"/>
    <trip id="motorcycle409" type="motorcycle_motorcycle" depart="805.54" departLane="best" departSpeed="max" from="679546138#0" to="-679546138#0"/>
    <trip id="motorcycle411" type="motorcycle_motorcycle" depart="809.48" departLane="best" from="679546138#1" to="-679546140"/>
    <trip id="motorcycle413" type="motorcycle_motorcycle" depart="813.42" departLane="best" departSpeed="max" from="-174962324#1" to="174962324#1"/>
    <trip id="motorcycle415" type="motorcycle_motorcycle" depart="817.36" departLane="best" departSpeed="max" from="545622325#0" to="-679546132"/>
    <trip id="motorcycle418" type="motorcycle_motorcycle" depart="823.27" departLane="best" departSpeed="max" from="679546138#0" to="-679546137#0"/>
    <trip id="motorcycle421" type="motorcycle_motorcycle" depart="829.17" departLane="best" departSpeed="max" from="-679546134" to="-679546129#0"/>
    <trip id="motorcycle424" type="motorcycle_motorcycle" depart="835.08" departLane="best" departSpeed="max" from="679546138#0" to="679546140"/>
    <trip id="motorcycle425" type="motorcycle_motorcycle" depart="837.05" departLane="best" from="192323437" to="-174962324#0"/>
    <trip id="motorcycle426" type="motorcycle_motorcycle" depart="839.02" departLane="best" departSpeed="max" from="-174962324#1" to="-192323437"/>
    <trip id="motorcycle427" type="motorcycle_motorcycle" depart="840.99" departLane="best" departSpeed="max" from="-679546134" to="-679546132"/>
    <trip id="motorcycle428" type="motorcycle_motorcycle" depart="842.96" departLane="best" departSpeed="max" from="-738098433#1" to="306441277#1"/>
    <trip id="motorcycle429" type="motorcycle_motorcycle" depart="844.93" departLane="best" departSpeed="max" from="-1181205658" to="1181205658"/>
    <trip id="motorcycle431" type="motorcycle_motorcycle" depart="848.87" departLane="best" from="679546138#1" to="679546137#2"/>
    <trip id="motorcycle432" type="motorcycle_motorcycle" depart="850.84" departLane="best" departSpeed="max" from="-306441277#1" to="738098433#1"/>
    <trip id="motorcycle434" type="motorcycle_motorcycle" depart="854.78" departLane="best" departSpeed="max" from="679546129#0" to="679546129#1"/>
    <trip id="motorcycle435" type="motorcycle_motorcycle" depart="856.75" departLane="best" departSpeed="max" from="10624375#0" to="10624415"/>
    <trip id="motorcycle437" type="motorcycle_motorcycle" depart="860.69" departLane="best" from="257748245#2" to="-257748245#2"/>
    <trip id="motorcycle441" type="motorcycle_motorcycle" depart="870.54" departLane="best" departSpeed="max" from="96376640" to="96376628"/>
    <trip id="motorcycle447" type="motorcycle_motorcycle" depart="884.32" departLane="best" departSpeed="max" from="545622325#0" to="-679546129#0"/>
    <trip id="motorcycle449" type="motorcycle_motorcycle" depart="888.26" departLane="best" departSpeed="max" from="-59561907#1" to="-59561907#0"/>
    <trip id="motorcycle450" type="motorcycle_motorcycle" depart="890.23" departLane="best" departSpeed="max" from="-727363723" to="-1190922680"/>
    <trip id="motorcycle451" type="motorcycle_motorcycle" depart="892.20" departLane="best" departSpeed="max" from="172117382" to="720021851"/>
    <trip id="motorcycle454" type="motorcycle_motorcycle" depart="898.11" departLane="best" departSpeed="max" from="-415191919#1" to="-415191919#0"/>
    <trip id="motorcycle456" type="motorcycle_motorcycle" depart="902.05" departLane="best" departSpeed="max" from="415191919#0" to="-415191919#0"/>
    <trip id="motorcycle458" type="motorcycle_motorcycle" depart="905.99" departLane="best" departSpeed="max" from="-738098434" to="-306441277#0"/>
    <trip id="motorcycle459" type="motorcycle_motorcycle" depart="907.96" departLane="best" departSpeed="max" from="257748245#0" to="-257748245#2"/>
    <trip id="motorcycle460" type="motorcycle_motorcycle" depart="909.93" departLane="best" departSpeed="max" from="-176797402" to="24977984#1"/>
    <trip id="motorcycle461" type="motorcycle_motorcycle" depart="911.90" departLane="best" departSpeed="max" from="173769010" to="-173769010"/>
    <trip id="motorcycle464" type="motorcycle_motorcycle" depart="917.80" departLane="best" departSpeed="max" from="679546129#0" to="-679546129#0"/>
    <trip id="motorcycle465" type="motorcycle_motorcycle" depart="919.77" departLane="best" departSpeed="max" from="679546137#0" to="679546137#2"/>
    <trip id="motorcycle468" type="motorcycle_motorcycle" depart="925.68" departLane="best" departSpeed="max" from="415191919#0" to="415191919#1"/>
    <trip id="motorcycle472" type="motorcycle_motorcycle" depart="933.56" departLane="best" departSpeed="max" from="-306441277#1" to="-306441277#0"/>
    <trip id="motorcycle474" type="motorcycle_motorcycle" depart="937.50" departLane="best" departSpeed="max" from="415191919#0" to="-415191919#0"/>
    <trip id="motorcycle476" type="motorcycle_motorcycle" depart="941.44" departLane="best" from="-1151525002#0" to="-101944010"/>