<?xml version="1.0" encoding="UTF-8"?>

<!-- generated on 2024-04-23 20:06:33.856144 by osmWebWizard.py v1_19_0+0000-baa66a0f364
<configuration>
    <net-file value="F:\SUMO\OptimalEmission-SUMO-ReinforcementLearning\2024-04-23-20-05-39\osm.net.xml.gz"/>
    <output-trip-file value="F:\SUMO\OptimalEmission-SUMO-ReinforcementLearning\2024-04-23-20-05-39\osm.truck.trips.xml"/>
    <route-file value="F:\SUMO\OptimalEmission-SUMO-ReinforcementLearning\2024-04-23-20-05-39\osm.truck.rou.xml"/>
    <prefix value="truck"/>
    <trip-attributes value="departLane=&quot;best&quot;"/>
    <fringe-start-attributes value="departSpeed=&quot;max&quot;"/>
    <vehicle-class value="truck"/>
    <fringe-factor value="5"/>
    <vclass value="truck"/>
    <via-edge-types value="highway.motorway,highway.motorway_link,highway.trunk_link,highway.primary_link,highway.secondary_link,highway.tertiary_link"/>
    <min-distance value="600.0"/>
    <min-distance.fringe value="10.0"/>
    <remove-loops value="True"/>
    <validate value="True"/>
    <insertion-density value="8.0"/>
</configuration>
-->

<!-- generated on 2024-04-23 20:06:33 by Eclipse SUMO duarouter Version 1.19.0
<configuration xmlns:xsi="http://www.w3.org/2001/XMLSchema-instance" xsi:noNamespaceSchemaLocation="http://sumo.dlr.de/xsd/duarouterConfiguration.xsd">

    <input>
        <net-file value="F:\SUMO\OptimalEmission-SUMO-ReinforcementLearning\2024-04-23-20-05-39\osm.net.xml.gz"/>
        <route-files value="F:\SUMO\OptimalEmission-SUMO-ReinforcementLearning\2024-04-23-20-05-39\osm.truck.trips.xml"/>
    </input>

    <output>
        <output-file value="F:\SUMO\OptimalEmission-SUMO-ReinforcementLearning\2024-04-23-20-05-39\osm.truck.trips.xml.tmp"/>
        <alternatives-output value="NUL"/>
        <write-trips value="true"/>
    </output>

    <processing>
        <remove-loops value="true"/>
    </processing>

    <time>
        <begin value="0.0"/>
        <end value="3600.0"/>
    </time>

    <report>
        <no-warnings value="true"/>
        <ignore-errors value="true"/>
        <no-step-log value="true"/>
    </report>

</configuration>
-->

<routes xmlns:xsi="http://www.w3.org/2001/XMLSchema-instance" xsi:noNamespaceSchemaLocation="http://sumo.dlr.de/xsd/routes_file.xsd">
    <vType id="truck_truck" vClass="truck"/>
    <trip id="truck2" type="truck_truck" depart="2.19" departLane="best" departSpeed="max" from="314786388" to="28173984"/>
    <trip id="truck7" type="truck_truck" depart="7.66" departLane="best" departSpeed="max" from="28552453" to="174618574"/>
    <trip id="truck8" type="truck_truck" depart="8.76" departLane="best" departSpeed="max" from="1111776067#0" to="24228595"/>
    <trip id="truck10" type="truck_truck" depart="10.95" departLane="best" departSpeed="max" from="374047813" to="28173985"/>
    <trip id="truck15" type="truck_truck" depart="16.42" departLane="best" departSpeed="max" from="374047813" to="28657557"/>
    <trip id="truck16" type="truck_truck" depart="17.52" departLane="best" departSpeed="max" from="26452132" to="9395409"/>
    <trip id="truck24" type="truck_truck" depart="26.28" departLane="best" departSpeed="max" from="28173986" to="10624427"/>
    <trip id="truck30" type="truck_truck" depart="32.84" departLane="best" departSpeed="max" from="9931907" to="270367431"/>
    <trip id="truck33" type="truck_truck" depart="36.13" departLane="best" departSpeed="max" from="1111776067#0" to="-1164402632"/>
    <trip id="truck50" type="truck_truck" depart="54.74" departLane="best" departSpeed="max" from="311893850" to="174618574"/>
    <trip id="truck59" type="truck_truck" depart="64.59" departLane="best" departSpeed="max" from="318709475" to="174618574"/>
    <trip id="truck66" type="truck_truck" depart="72.26" departLane="best" departSpeed="max" from="-318918548" to="1160222017"/>
    <trip id="truck72" type="truck_truck" depart="78.83" departLane="best" departSpeed="max" from="26452132" to="28657557"/>
    <trip id="truck75" type="truck_truck" depart="82.11" departLane="best" departSpeed="max" from="-59561907#1" to="-59561907#0"/>
    <trip id="truck76" type="truck_truck" depart="83.21" departLane="best" departSpeed="max" from="196364901" to="24228595"/>
    <trip id="truck88" type="truck_truck" depart="96.34" departLane="best" departSpeed="max" from="314786388" to="28173984"/>
    <trip id="truck109" type="truck_truck" depart="119.33" departLane="best" departSpeed="max" from="26452132" to="29087198"/>
    <trip id="truck114" type="truck_truck" depart="124.81" departLane="best" departSpeed="max" from="26623835" to="28173984"/>
    <trip id="truck133" type="truck_truck" depart="145.61" departLane="best" departSpeed="max" from="-318927946" to="174618574"/>
    <trip id="truck135" type="truck_truck" depart="147.80" departLane="best" departSpeed="max" from="311893916" to="-318927940"/>
    <trip id="truck142" type="truck_truck" depart="155.46" departLane="best" departSpeed="max" from="314786388" to="174618574"/>
    <trip id="truck155" type="truck_truck" depart="169.70" departLane="best" departSpeed="max" from="502188340" to="9395409"/>
    <trip id="truck162" type="truck_truck" depart="177.36" departLane="best" departSpeed="max" from="59561907#0" to="59561907#1"/>
    <trip id="truck172" type="truck_truck" depart="188.31" departLane="best" departSpeed="max" from="96376624" to="-318918547"/>
    <trip id="truck175" type="truck_truck" depart="191.59" departLane="best" departSpeed="max" from="314786388" to="10624401"/>
    <trip id="truck179" type="truck_truck" depart="195.97" departLane="best" departSpeed="max" from="26452132" to="284905729#0"/>
    <trip id="truck180" type="truck_truck" depart="197.07" departLane="best" departSpeed="max" from="318701882" to="28173984"/>
    <trip id="truck184" type="truck_truck" depart="201.44" departLane="best" departSpeed="max" from="311893916" to="10624401"/>
    <trip id="truck188" type="truck_truck" depart="205.82" departLane="best" departSpeed="max" from="8052816" to="28173984"/>
    <trip id="truck190" type="truck_truck" depart="208.01" departLane="best" departSpeed="max" from="162003311#0" to="174618574"/>
    <trip id="truck191" type="truck_truck" depart="209.11" departLane="best" departSpeed="max" from="28552453" to="1154086257#1"/>
    <trip id="truck196" type="truck_truck" depart="214.58" departLane="best" departSpeed="max" from="28173986" to="10624416"/>
    <trip id="truck197" type="truck_truck" depart="215.68" departLane="best" departSpeed="max" from="374048028" to="29087198"/>
    <trip id="truck207" type="truck_truck" depart="226.63" departLane="best" departSpeed="max" from="10624375#0" to="9395409"/>
    <trip id="truck211" type="truck_truck" depart="231.00" departLane="best" departSpeed="max" from="28657592" to="96376628"/>
    <trip id="truck214" type="truck_truck" depart="234.29" departLane="best" departSpeed="max" from="42750044" to="174618574"/>
    <trip id="truck229" type="truck_truck" depart="250.71" departLane="best" departSpeed="max" from="502188340" to="318918545"/>
    <trip id="truck237" type="truck_truck" depart="259.47" departLane="best" departSpeed="max" from="196364901" to="28173984"/>
    <trip id="truck246" type="truck_truck" depart="269.32" departLane="best" departSpeed="max" from="318709475" to="1111776063#2"/>
    <trip id="truck247" type="truck_truck" depart="270.42" departLane="best" departSpeed="max" from="318701882" to="503237958"/>
    <trip id="truck250" type="truck_truck" depart="273.70" departLane="best" departSpeed="max" from="9931907" to="10624416"/>
    <trip id="truck251" type="truck_truck" depart="274.80" departLane="best" departSpeed="max" from="28552453" to="318918545"/>
    <trip id="truck252" type="truck_truck" depart="275.89" departLane="best" departSpeed="max" from="28552453" to="29087198"/>
    <trip id="truck253" type="truck_truck" depart="276.99" departLane="best" departSpeed="max" from="8052816" to="-318927940"/>
    <trip id="truck259" type="truck_truck" depart="283.56" departLane="best" departSpeed="max" from="374048028" to="9395409"/>
    <trip id="truck262" type="truck_truck" depart="286.84" departLane="best" departSpeed="max" from="96376624" to="1111776066"/>
    <trip id="truck272" type="truck_truck" depart="297.79" departLane="best" departSpeed="max" from="-318927946" to="9395409"/>
    <trip id="truck276" type="truck_truck" depart="302.17" departLane="best" departSpeed="max" from="26452132" to="1160222017"/>
    <trip id="truck282" type="truck_truck" depart="308.74" departLane="best" departSpeed="max" from="196563708#0" to="-1164402632"/>
    <trip id="truck288" type="truck_truck" depart="315.31" departLane="best" departSpeed="max" from="-318918548" to="284905729#0"/>
    <trip id="truck299" type="truck_truck" depart="327.35" departLane="best" departSpeed="max" from="26452132" to="29087198"/>
    <trip id="truck307" type="truck_truck" depart="336.11" departLane="best" departSpeed="max" from="96376640" to="174618574"/>
    <trip id="truck309" type="truck_truck" depart="338.30" departLane="best" departSpeed="max" from="502188340" to="1160222017"/>
    <trip id="truck312" type="truck_truck" depart="341.58" departLane="best" departSpeed="max" from="10624375#0" to="-1172037593"/>
    <trip id="truck313" type="truck_truck" depart="342.68" departLane="best" departSpeed="max" from="8052816" to="1160222017"/>
    <trip id="truck323" type="truck_truck" depart="353.62" departLane="best" departSpeed="max" from="9931907" to="10624401"/>
    <trip id="truck326" type="truck_truck" depart="356.91" departLane="best" departSpeed="max" from="1111776064#0" to="-318927940"/>
    <trip id="truck340" type="truck_truck" depart="372.24" departLane="best" departSpeed="max" from="318701882" to="193000854"/>
    <trip id="truck346" type="truck_truck" depart="378.80" departLane="best" departSpeed="max" from="-318918548" to="9395409"/>
    <trip id="truck348" type="truck_truck" depart="380.99" departLane="best" departSpeed="max" from="8052816" to="96376628"/>
    <trip id="truck353" type="truck_truck" depart="386.47" departLane="best" departSpeed="max" from="26623835" to="270367431"/>
    <trip id="truck359" type="truck_truck" depart="393.04" departLane="best" departSpeed="max" from="374048028" to="174618574"/>
    <trip id="truck367" type="truck_truck" depart="401.80" departLane="best" departSpeed="max" from="318709475" to="-318927940"/>
    <trip id="truck369" type="truck_truck" depart="403.98" departLane="best" departSpeed="max" from="24228712" to="28173985"/>
    <trip id="truck376" type="truck_truck" depart="411.65" departLane="best" departSpeed="max" from="42750044" to="1164402627"/>
    <trip id="truck377" type="truck_truck" depart="412.74" departLane="best" departSpeed="max" from="154914014#0" to="503237958"/>
    <trip id="truck385" type="truck_truck" depart="421.50" departLane="best" departSpeed="max" from="154914015" to="10624401"/>
    <trip id="truck401" type="truck_truck" depart="439.02" departLane="best" departSpeed="max" from="26414045#0" to="1154086257#1"/>
    <trip id="truck420" type="truck_truck" depart="459.82" departLane="best" departSpeed="max" from="266113221" to="318927945"/>
    <trip id="truck429" type="truck_truck" depart="469.67" departLane="best" departSpeed="max" from="196364901" to="24228595"/>
    <trip id="truck436" type="truck_truck" depart="477.34" departLane="best" departSpeed="max" from="96376640" to="28173663"/>
    <trip id="truck442" type="truck_truck" depart="483.91" departLane="best" departSpeed="max" from="27085935" to="10624416"/>
    <trip id="truck444" type="truck_truck" depart="486.10" departLane="best" departSpeed="max" from="311893850" to="284905729#0"/>
    <trip id="truck445" type="truck_truck" depart="487.19" departLane="best" departSpeed="max" from="28657592" to="503237958"/>
    <trip id="truck452" type="truck_truck" depart="494.85" departLane="best" departSpeed="max" from="26452132" to="9395409"/>
    <trip id="truck455" type="truck_truck" depart="498.14" departLane="best" departSpeed="max" from="374048028" to="1160222017"/>
    <trip id="truck456" type="truck_truck" depart="499.23" departLane="best" departSpeed="max" from="374047813" to="29087198"/>
    <trip id="truck477" type="truck_truck" depart="522.22" departLane="best" departSpeed="max" from="311893850" to="28657557"/>
    <trip id="truck482" type="truck_truck" depart="527.70" departLane="best" departSpeed="max" from="8052816" to="-1164402632"/>
    <trip id="truck485" type="truck_truck" depart="530.98" departLane="best" departSpeed="max" from="-318918548" to="28173985"/>
    <trip id="truck503" type="truck_truck" depart="550.69" departLane="best" departSpeed="max" from="10624375#0" to="-1172037593"/>
    <trip id="truck505" type="truck_truck" depart="552.88" departLane="best" departSpeed="max" from="318701882" to="1160222017"/>
    <trip id="truck506" type="truck_truck" depart="553.97" departLane="best" departSpeed="max" from="318918557" to="1164402627"/>
    <trip id="truck507" type="truck_truck" depart="555.07" departLane="best" departSpeed="max" from="-318927946" to="1164402627"/>
    <trip id="truck510" type="truck_truck" depart="558.35" departLane="best" departSpeed="max" from="26414045#0" to="1154086257#1"/>
    <trip id="truck513" type="truck_truck" depart="561.64" departLane="best" departSpeed="max" from="311893901" to="1160222017"/>
    <trip id="truck521" type="truck_truck" depart="570.40" departLane="best" departSpeed="max" from="28552453" to="318918545"/>
    <trip id="truck530" type="truck_truck" depart="580.25" departLane="best" departSpeed="max" from="-318918548" to="28657557"/>
    <trip id="truck531" type="truck_truck" depart="581.34" departLane="best" departSpeed="max" from="374047813" to="174618574"/>
    <trip id="truck537" type="truck_truck" depart="587.91" departLane="best" departSpeed="max" from="27085935" to="10624416"/>
    <trip id="truck547" type="truck_truck" depart="598.86" departLane="best" departSpeed="max" from="311893906" to="10624401"/>
    <trip id="truck558" type="truck_truck" depart="610.90" departLane="best" departSpeed="max" from="28657592" to="1160222017"/>
    <trip id="truck562" type="truck_truck" depart="615.28" departLane="best" departSpeed="max" from="311893850" to="1160222017"/>
    <trip id="truck592" type="truck_truck" depart="648.13" departLane="best" departSpeed="max" from="318918557" to="1160222017"/>
    <trip id="truck594" type="truck_truck" depart="650.32" departLane="best" departSpeed="max" from="24228712" to="8081831"/>
    <trip id="truck605" type="truck_truck" depart="662.36" departLane="best" departSpeed="max" from="263520956" to="1154086257#1"/>
    <trip id="truck617" type="truck_truck" depart="675.50" departLane="best" departSpeed="max" from="196364901" to="24228595"/>
    <trip id="truck626" type="truck_truck" depart="685.35" departLane="best" departSpeed="max" from="196563708#0" to="24228595"/>
    <trip id="truck627" type="truck_truck" depart="686.45" departLane="best" departSpeed="max" from="7996430" to="10624401"/>
    <trip id="truck630" type="truck_truck" depart="689.73" departLane="best" departSpeed="max" from="42750044" to="28657557"/>
    <trip id="truck635" type="truck_truck" depart="695.20" departLane="best" departSpeed="max" from="8052816" to="1160222017"/>
    <trip id="truck649" type="truck_truck" depart="710.53" departLane="best" departSpeed="max" from="374047813" to="1154086257#1"/>
    <trip id="truck651" type="truck_truck" depart="712.72" departLane="best" departSpeed="max" from="8052816" to="96376628"/>
    <trip id="truck666" type="truck_truck" depart="729.14" departLane="best" departSpeed="max" from="1154086256#0" to="96376628"/>
    <trip id="truck668" type="truck_truck" depart="731.33" departLane="best" departSpeed="max" from="28552453" to="318927945"/>
    <trip id="truck672" type="truck_truck" depart="735.71" departLane="best" departSpeed="max" from="42750044" to="174618574"/>
    <trip id="truck691" type="truck_truck" depart="756.51" departLane="best" departSpeed="max" from="314786388" to="270367431"/>
    <trip id="truck692" type="truck_truck" depart="757.61" departLane="best" departSpeed="max" from="318918557" to="28657557"/>
    <trip id="truck695" type="truck_truck" depart="760.89" departLane="best" departSpeed="max" from="10624375#0" to="318918545"/>
    <trip id="truck702" type="truck_truck" depart="768.56" departLane="best" departSpeed="max" from="26414045#0" to="96376628"/>
    <trip id="truck704" type="truck_truck" depart="770.75" departLane="best" departSpeed="max" from="318701882" to="-318918547"/>
    <trip id="truck706" type="truck_truck" depart="772.94" departLane="best" departSpeed="max" from="502188340" to="10624415"/>
    <trip id="truck737" type="truck_truck" depart="806.87" departLane="best" departSpeed="max" from="24228712" to="96376628"/>
    <trip id="truck747" type="truck_truck" depart="817.82" departLane="best" departSpeed="max" from="7996430" to="270367431"/>
    <trip id="truck758" type="truck_truck" depart="829.87" departLane="best" departSpeed="max" from="96376640" to="270367431"/>
    <trip id="truck762" type="truck_truck" depart="834.25" departLane="best" departSpeed="max" from="10624375#0" to="9395409"/>
    <trip id="truck774" type="truck_truck" depart="847.38" departLane="best" departSpeed="max" from="28657592" to="284905729#0"/>
    <trip id="truck776" type="truck_truck" depart="849.57" departLane="best" departSpeed="max" from="266113221" to="503237958"/>
    <trip id="truck779" type="truck_truck" depart="852.86" departLane="best" departSpeed="max" from="28552453" to="318918545"/>
    <trip id="truck781" type="truck_truck" depart="855.05" departLane="best" departSpeed="max" from="263520955" to="270367431"/>
    <trip id="truck786" type="truck_truck" depart="860.52" departLane="best" departSpeed="max" from="24228712" to="1160222017"/>
    <trip id="truck798" type="truck_truck" depart="873.66" departLane="best" departSpeed="max" from="266113493" to="10624401"/>
    <trip id="truck806" type="truck_truck" depart="882.42" departLane="best" departSpeed="max" from="28552453" to="1154086257#1"/>
    <trip id="truck813" type="truck_truck" depart="890.08" departLane="best" departSpeed="max" from="263520956" to="318918545"/>
    <trip id="truck814" type="truck_truck" depart="891.18" departLane="best" departSpeed="max" from="154914015" to="96376628"/>
    <trip id="truck816" type="truck_truck" depart="893.36" departLane="best" departSpeed="max" from="96376640" to="1111776066"/>
    <trip id="truck825" type="truck_truck" depart="903.22" departLane="best" departSpeed="max" from="314786388" to="10624401"/>
    <trip id="truck827" type="truck_truck" depart="905.41" departLane="best" departSpeed="max" from="26452132" to="284905729#0"/>
    <trip id="truck830" type="truck_truck" depart="908.69" departLane="best" departSpeed="max" from="96376640" to="24228595"/>
    <trip id="truck845" type="truck_truck" depart="925.11" departLane="best" departSpeed="max" from="26414045#0" to="10624401"/>
    <trip id="truck847" type="truck_truck" depart="927.30" departLane="best" departSpeed="max" from="196364901" to="10624427"/>
    <trip id="truck848" type="truck_truck" depart="928.40" departLane="best" departSpeed="max" from="318918557" to="284905729#0"/>
    <trip id="truck849" type="truck_truck" depart="929.49" departLane="best" departSpeed="max" from="28552453" to="28173985"/>
    <trip id="truck850" type="truck_truck" depart="930.59" departLane="best" departSpeed="max" from="27085935" to="-318918547"/>
    <trip id="truck852" type="truck_truck" depart="932.78" departLane="best" departSpeed="max" from="1111776067#0" to="9395409"/>
    <trip id="truck861" type="truck_truck" depart="942.63" departLane="best" departSpeed="max" from="311893916" to="10624416"/>
    <trip id="truck864" type="truck_truck" depart="945.92" departLane="best" departSpeed="max" from="26452132" to="8081831"/>
    <trip id="truck866" type="truck_truck" depart="948.11" departLane="best" departSpeed="max" from="27410071" to="24228595"/>
    <trip id="truck883" type="truck_truck" depart="966.72" departLane="best" departSpeed="max" from="229911753" to="1164402627"/>
    <trip id="truck884" type="truck_truck" depart="967.81" departLane="best" departSpeed="max" from="7996430" to="9395409"/>
    <trip id="truck887" type="truck_truck" depart="971.10" departLane="best" departSpeed="max" from="-318927946" to="96376628"/>
    <trip id="truck888" type="truck_truck" depart="972.19" departLane="best" departSpeed="max" from="154914015" to="96376628"/>
    <trip id="truck894" type="truck_truck" depart="978.76" departLane="best" departSpeed="max" from="10624375#0" to="28657557"/>
    <trip id="truck896" type="truck_truck" depart="980.95" departLane="best" departSpeed="max" from="318709475" to="-318918547"/>
    <trip id="truck908" type="truck_truck" depart="994.09" departLane="best" departSpeed="max" from="229911753" to="1164402627"/>
    <trip id="truck920" type="truck_truck" depart="1007.22" departLane="best" departSpeed="max" from="24228712" to="28173985"/>
    <trip id="truck926" type="truck_truck" depart="1013.79" departLane="best" departSpeed="max" from="1111776064#0" to="24228595"/>
    <trip id="truck927" type="truck_truck" depart="1014.89" departLane="best" departSpeed="max" from="-318918548" to="1164402627"/>
    <trip id="truck929" type="truck_truck" depart="1017.08" departLane="best" departSpeed="max" from="263520956" to="1154086257#1"/>
    <trip id="truck931" type="truck_truck" depart="1019.27" departLane="best" departSpeed="max" from="374047813" to="284905729#0"/>
    <trip id="truck937" type="truck_truck" depart="1025.84" departLane="best" departSpeed="max" from="7996430" to="-1164402632"/>
    <trip id="truck944" type="truck_truck" depart="1033.50" departLane="best" departSpeed="max" from="28657592" to="174618574"/>
    <trip id="truck946" type="truck_truck" depart="1035.69" departLane="best" departSpeed="max" from="10624375#0" to="174618574"/>
    <trip id="truck947" type="truck_truck" depart="1036.78" departLane="best" departSpeed="max" from="26452132" to="28657557"/>
    <trip id="truck950" type="truck_truck" depart="1040.07" departLane="best" departSpeed="max" from="311893850" to="174618574"/>
    <trip id="truck951" type="truck_truck" depart="1041.16" departLane="best" departSpeed="max" from="26452132" to="503237958"/>
    <trip id="truck966" type="truck_truck" depart="1057.59" departLane="best" departSpeed="max" from="26623835" to="28173984"/>
    <trip id="truck969" type="truck_truck" depart="1060.87" departLane="best" departSpeed="max" from="1111776067#0" to="10624401"/>
    <trip id="truck974" type="truck_truck" depart="1066.34" departLane="best" departSpeed="max" from="8052816" to="28173984"/>
    <trip id="truck981" type="truck_truck" depart="1074.01" departLane="best" departSpeed="max" from="266113221" to="9395409"/>
    <trip id="truck984" type="truck_truck" depart="1077.29" departLane="best" departSpeed="max" from="28552453" to="8081831"/>
    <trip id="truck986" type="truck_truck" depart="1079.48" departLane="best" departSpeed="max" from="311893916" to="-318918547"/>
    <trip id="truck1001" type="truck_truck" depart="1095.90" departLane="best" departSpeed="max" from="263520956" to="1164402627"/>
    <trip id="truck1002" type="truck_truck" depart="1097.00" departLane="best" departSpeed="max" from="-318918548" to="96376628"/>
    <trip id="truck1013" type="truck_truck" depart="1109.04" departLane="best" departSpeed="max" from="374048028" to="9395409"/>
    <trip id="truck1059" type="truck_truck" depart="1159.40" departLane="best" departSpeed="max" from="1154086256#0" to="503237958"/>
    <trip id="truck1068" type="truck_truck" depart="1169.26" departLane="best" departSpeed="max" from="154914014#0" to="96376628"/>
    <trip id="truck1069" type="truck_truck" depart="1170.35" departLane="best" departSpeed="max" from="263520955" to="10624427"/>
    <trip id="truck1075" type="truck_truck" depart="1176.92" departLane="best" departSpeed="max" from="311893906" to="270367431"/>
    <trip id="truck1085" type="truck_truck" depart="1187.87" departLane="best" departSpeed="max" from="154914015" to="1111776063#2"/>
    <trip id="truck1101" type="truck_truck" depart="1205.39" departLane="best" departSpeed="max" from="96376624" to="9395409"/>
    <trip id="truck1108" type="truck_truck" depart="1213.05" departLane="best" departSpeed="max" from="311893850" to="174618574"/>
    <trip id="truck1109" type="truck_truck" depart="1214.14" departLane="best" departSpeed="max" from="8052816" to="1154086257#1"/>
    <trip id="truck1112" type="truck_truck" depart="1217.43" departLane="best" departSpeed="max" from="374048028" to="318927945"/>
    <trip id="truck1115" type="truck_truck" depart="1220.71" departLane="best" departSpeed="max" from="28657592" to="284905729#0"/>
    <trip id="truck1118" type="truck_truck" depart="1224.00" departLane="best" departSpeed="max" from="229911753" to="1164402627"/>
    <trip id="truck1125" type="truck_truck" depart="1231.66" departLane="best" departSpeed="max" from="28552453" to="-1172037593"/>
    <trip id="truck1126" type="truck_truck" depart="1232.76" departLane="best" departSpeed="max" from="96376640" to="28173984"/>
    <trip id="truck1141" type="truck_truck" depart="1249.18" departLane="best" departSpeed="max" from="24228712" to="28173985"/>
    <trip id="truck1148" type="truck_truck" depart="1256.84" departLane="best" departSpeed="max" from="266113221" to="9395409"/>
    <trip id="truck1160" type="truck_truck" depart="1269.98" departLane="best" departSpeed="max" from="26414045#0" to="270367431"/>
    <trip id="truck1162" type="truck_truck" depart="1272.17" departLane="best" departSpeed="max" from="26623835" to="10624416"/>
    <trip id="truck1164" type="truck_truck" depart="1274.36" departLane="best" departSpeed="max" from="374048028" to="284905729#0"/>
    <trip id="truck1168" type="truck_truck" depart="1278.74" departLane="best" departSpeed="max" from="10624375#0" to="28173985"/>
    <trip id="truck1178" type="truck_truck" depart="1289.69" departLane="best" departSpeed="max" from="374048028" to="9395409"/>
    <trip id="truck1179" type="truck_truck" depart="1290.78" departLane="best" departSpeed="max" from="263520956" to="1164402627"/>
    <trip id="truck1181" type="truck_truck" depart="1292.97" departLane="best" departSpeed="max" from="42750044" to="1160222017"/>
    <trip id="truck1199" type="truck_truck" depart="1312.68" departLane="best" departSpeed="max" from="26623835" to="10624416"/>
    <trip id="truck1200" type="truck_truck" depart="1313.77" departLane="best" departSpeed="max" from="311893906" to="270367431"/>
    <trip id="truck1202" type="truck_truck" depart="1315.96" departLane="best" departSpeed="max" from="1111776064#0" to="-318927940"/>
    <trip id="truck1204" type="truck_truck" depart="1318.15" departLane="best" departSpeed="max" from="154914015" to="174618574"/>
    <trip id="truck1207" type="truck_truck" depart="1321.44" departLane="best" departSpeed="max" from="502188340" to="96376628"/>
    <trip id="truck1214" type="truck_truck" depart="1329.10" departLane="best" departSpeed="max" from="318709475" to="28173984"/>
    <trip id="truck1219" type="truck_truck" depart="1334.57" departLane="best" departSpeed="max" from="7996430" to="10624427"/>
    <trip id="truck1227" type="truck_truck" depart="1343.33" departLane="best" departSpeed="max" from="154914014#0" to="503237958"/>
    <trip id="truck1229" type="truck_truck" depart="1345.52" departLane="best" departSpeed="max" from="266113221" to="1160222017"/>
    <trip id="truck1230" type="truck_truck" depart="1346.62" departLane="best" departSpeed="max" from="196364901" to="28173984"/>
    <trip id="truck1232" type="truck_truck" depart="1348.81" departLane="best" departSpeed="max" from="318918557" to="1154086257#1"/>
    <trip id="truck1234" type="truck_truck" depart="1351.00" departLane="best" departSpeed="max" from="96376624" to="-318927940"/>
    <trip id="truck1245" type="truck_truck" depart="1363.04" departLane="best" departSpeed="max" from="1111776067#0" to="28173984"/>
    <trip id="truck1247" type="truck_truck" depart="1365.23" departLane="best" departSpeed="max" from="374048028" to="96376628"/>
    <trip id="truck1257" type="truck_truck" depart="1376.18" departLane="best" departSpeed="max" from="311893916" to="270367431"/>
    <trip id="truck1261" type="truck_truck" depart="1380.56" departLane="best" departSpeed="max" from="318701882" to="24228595"/>
    <trip id="truck1273" type="truck_truck" depart="1393.69" departLane="best" departSpeed="max" from="-318927946" to="1164402627"/>
    <trip id="truck1292" type="truck_truck" depart="1414.49" departLane="best" departSpeed="max" from="311893901" to="28657557"/>
    <trip id="truck1316" type="truck_truck" depart="1440.77" departLane="best" departSpeed="max" from="502188340" to="174618574"/>
    <trip id="truck1323" type="truck_truck" depart="1448.43" departLane="best" departSpeed="max" from="374047813" to="96376628"/>
    <trip id="truck1345" type="truck_truck" depart="1472.52" departLane="best" departSpeed="max" from="311893906" to="10624427"/>
    <trip id="truck1352" type="truck_truck" depart="1480.18" departLane="best" departSpeed="max" from="374047813" to="28173985"/>
    <trip id="truck1359" type="truck_truck" depart="1487.85" departLane="best" departSpeed="max" from="96376624" to="-318927940"/>
    <trip id="truck1362" type="truck_truck" depart="1491.13" departLane="best" departSpeed="max" from="311893901" to="503237958"/>
    <trip id="truck1365" type="truck_truck" depart="1494.42" departLane="best" departSpeed="max" from="196364906" to="1164402627"/>
    <trip id="truck1371" type="truck_truck" depart="1500.98" departLane="best" departSpeed="max" from="42750044" to="96376628"/>
    <trip id="truck1391" type="truck_truck" depart="1522.88" departLane="best" departSpeed="max" from="26414045#0" to="270367431"/>