<?xml version="1.0" encoding="UTF-8"?>

<!-- generated on 2024-04-23 20:06:32.738713 by osmWebWizard.py v1_19_0+0000-baa66a0f364
<configuration>
    <net-file value="F:\SUMO\OptimalEmission-SUMO-ReinforcementLearning\2024-04-23-20-05-39\osm.net.xml.gz"/>
    <output-trip-file value="F:\SUMO\OptimalEmission-SUMO-ReinforcementLearning\2024-04-23-20-05-39\osm.passenger.trips.xml"/>
    <route-file value="F:\SUMO\OptimalEmission-SUMO-ReinforcementLearning\2024-04-23-20-05-39\osm.passenger.rou.xml"/>
    <prefix value="veh"/>
    <trip-attributes value="departLane=&quot;best&quot;"/>
    <fringe-start-attributes value="departSpeed=&quot;max&quot;"/>
    <vehicle-class value="passenger"/>
    <lanes value="True"/>
    <fringe-factor value="5"/>
    <allow-fringe.min-length value="1000.0"/>
    <via-edge-types value="highway.motorway,highway.motorway_link,highway.trunk_link,highway.primary_link,highway.secondary_link,highway.tertiary_link"/>
    <min-distance value="300.0"/>
    <min-distance.fringe value="10.0"/>
    <remove-loops value="True"/>
    <validate value="True"/>
    <insertion-density value="12.0"/>
</configuration>
-->

<!-- generated on 2024-04-23 20:06:32 by Eclipse SUMO duarouter Version 1.19.0
<configuration xmlns:xsi="http://www.w3.org/2001/XMLSchema-instance" xsi:noNamespaceSchemaLocation="http://sumo.dlr.de/xsd/duarouterConfiguration.xsd">

    <input>
        <net-file value="F:\SUMO\OptimalEmission-SUMO-ReinforcementLearning\2024-04-23-20-05-39\osm.net.xml.gz"/>
        <route-files value="F:\SUMO\OptimalEmission-SUMO-ReinforcementLearning\2024-04-23-20-05-39\osm.passenger.trips.xml"/>
    </input>

    <output>
        <output-file value="F:\SUMO\OptimalEmission-SUMO-ReinforcementLearning\2024-04-23-20-05-39\osm.passenger.trips.xml.tmp"/>
        <alternatives-output value="NUL"/>
        <write-trips value="true"/>
    </output>

    <processing>
        <remove-loops value="true"/>
    </processing>

    <time>
        <begin value="0.0"/>
        <end value="3600.0"/>
    </time>

    <report>
        <no-warnings value="true"/>
        <ignore-errors value="true"/>
        <no-step-log value="true"/>
    </report>

</configuration>
-->

<routes xmlns:xsi="http://www.w3.org/2001/XMLSchema-instance" xsi:noNamespaceSchemaLocation="http://sumo.dlr.de/xsd/routes_file.xsd">
    <vType id="veh_passenger" vClass="passenger"/>
    <trip id="veh10" type="veh_passenger" depart="7.30" departLane="best" departSpeed="max" from="374048028" to="284905729#0"/>
    <trip id="veh12" type="veh_passenger" depart="8.76" departLane="best" departSpeed="max" from="96376624" to="1111776063#2"/>
    <trip id="veh15" type="veh_passenger" depart="10.95" departLane="best" departSpeed="max" from="374048028" to="28657557"/>
    <trip id="veh26" type="veh_passenger" depart="18.98" departLane="best" departSpeed="max" from="154914015" to="9395409"/>
    <trip id="veh28" type="veh_passenger" depart="20.44" departLane="best" departSpeed="max" from="10624375#0" to="28657557"/>
    <trip id="veh31" type="veh_passenger" depart="22.63" departLane="best" departSpeed="max" from="502188340" to="318927945"/>
    <trip id="veh34" type="veh_passenger" depart="24.82" departLane="best" departSpeed="max" from="1111776067#0" to="9395409"/>
    <trip id="veh37" type="veh_passenger" depart="27.01" departLane="best" departSpeed="max" from="7996430" to="1160222017"/>
    <trip id="veh45" type="veh_passenger" depart="32.84" departLane="best" departSpeed="max" from="374047813" to="1154086257#1"/>
    <trip id="veh51" type="veh_passenger" depart="37.22" departLane="best" departSpeed="max" from="154914015" to="28173663"/>
    <trip id="veh52" type="veh_passenger" depart="37.95" departLane="best" departSpeed="max" from="-318927946" to="1154086257#1"/>
    <trip id="veh66" type="veh_passenger" depart="48.17" departLane="best" departSpeed="max" from="-318918548" to="1164402627"/>
    <trip id="veh73" type="veh_passenger" depart="53.28" departLane="best" departSpeed="max" from="1111776064#0" to="10624427"/>
    <trip id="veh81" type="veh_passenger" depart="59.12" departLane="best" departSpeed="max" from="59561907#0" to="-173769010"/>
    <trip id="veh84" type="veh_passenger" depart="61.31" departLane="best" departSpeed="max" from="96376624" to="24228595"/>
    <trip id="veh87" type="veh_passenger" depart="63.50" departLane="best" departSpeed="max" from="-318918548" to="1154086257#1"/>
    <trip id="veh88" type="veh_passenger" depart="64.23" departLane="best" departSpeed="max" from="24228712" to="1160222017"/>
    <trip id="veh103" type="veh_passenger" depart="75.18" departLane="best" departSpeed="max" from="229911753" to="96376628"/>
    <trip id="veh106" type="veh_passenger" depart="77.37" departLane="best" departSpeed="max" from="96376624" to="96376628"/>
    <trip id="veh117" type="veh_passenger" depart="85.40" departLane="best" departSpeed="max" from="28173986" to="270367431"/>
    <trip id="veh130" type="veh_passenger" depart="94.88" departLane="best" departSpeed="max" from="28552453" to="96376628"/>
    <trip id="veh133" type="veh_passenger" depart="97.07" departLane="best" departSpeed="max" from="311893901" to="9395409"/>
    <trip id="veh136" type="veh_passenger" depart="99.26" departLane="best" departSpeed="max" from="154914015" to="270367431"/>
    <trip id="veh138" type="veh_passenger" depart="100.72" departLane="best" departSpeed="max" from="28552453" to="10624415"/>
    <trip id="veh144" type="veh_passenger" depart="105.10" departLane="best" departSpeed="max" from="318701882" to="193000854"/>
    <trip id="veh154" type="veh_passenger" depart="112.40" departLane="best" departSpeed="max" from="24228634#0" to="270367431"/>
    <trip id="veh165" type="veh_passenger" depart="120.43" departLane="best" departSpeed="max" from="263520955" to="10624427"/>
    <trip id="veh169" type="veh_passenger" depart="123.35" departLane="best" departSpeed="max" from="96376624" to="10624416"/>
    <trip id="veh171" type="veh_passenger" depart="124.81" departLane="best" departSpeed="max" from="96376640" to="174618574"/>
    <trip id="veh175" type="veh_passenger" depart="127.73" departLane="best" departSpeed="max" from="-318927946" to="1154086257#1"/>
    <trip id="veh176" type="veh_passenger" depart="128.46" departLane="best" departSpeed="max" from="318701882" to="1111776063#2"/>
    <trip id="veh177" type="veh_passenger" depart="129.19" departLane="best" departSpeed="max" from="28552453" to="174618574"/>
    <trip id="veh182" type="veh_passenger" depart="132.84" departLane="best" departSpeed="max" from="318701882" to="28173984"/>
    <trip id="veh185" type="veh_passenger" depart="135.03" departLane="best" departSpeed="max" from="173769010" to="59561907#1"/>
    <trip id="veh186" type="veh_passenger" depart="135.76" departLane="best" departSpeed="max" from="314786388" to="10624427"/>
    <trip id="veh195" type="veh_passenger" depart="142.33" departLane="best" departSpeed="max" from="311893850" to="1160222017"/>
    <trip id="veh199" type="veh_passenger" depart="145.24" departLane="best" departSpeed="max" from="-318918548" to="174618574"/>
    <trip id="veh203" type="veh_passenger" depart="148.16" departLane="best" departSpeed="max" from="1111776064#0" to="-1164402632"/>
    <trip id="veh211" type="veh_passenger" depart="154.00" departLane="best" departSpeed="max" from="-318927946" to="1154086257#1"/>
    <trip id="veh212" type="veh_passenger" depart="154.73" departLane="best" departSpeed="max" from="10624375#0" to="96376628"/>
    <trip id="veh216" type="veh_passenger" depart="157.65" departLane="best" departSpeed="max" from="311893901" to="96376628"/>
    <trip id="veh224" type="veh_passenger" depart="163.49" departLane="best" departSpeed="max" from="318918557" to="174618574"/>
    <trip id="veh227" type="veh_passenger" depart="165.68" departLane="best" departSpeed="max" from="154914015" to="1111776063#2"/>
    <trip id="veh233" type="veh_passenger" depart="170.06" departLane="best" departSpeed="max" from="24228712" to="8081831"/>
    <trip id="veh238" type="veh_passenger" depart="173.71" departLane="best" departSpeed="max" from="502188340" to="96376628"/>
    <trip id="veh239" type="veh_passenger" depart="174.44" departLane="best" departSpeed="max" from="24228712" to="29087198"/>
    <trip id="veh240" type="veh_passenger" depart="175.17" departLane="best" departSpeed="max" from="26623835" to="270367431"/>
    <trip id="veh251" type="veh_passenger" depart="183.20" departLane="best" departSpeed="max" from="1111776067#0" to="1111776063#2"/>
    <trip id="veh253" type="veh_passenger" depart="184.66" departLane="best" departSpeed="max" from="318709475" to="503237958"/>
    <trip id="veh266" type="veh_passenger" depart="194.15" departLane="best" departSpeed="max" from="42750044" to="96376628"/>
    <trip id="veh271" type="veh_passenger" depart="197.80" departLane="best" departSpeed="max" from="311893916" to="270367431"/>
    <trip id="veh272" type="veh_passenger" depart="198.53" departLane="best" departSpeed="max" from="-318918548" to="318927945"/>
    <trip id="veh278" type="veh_passenger" depart="202.90" departLane="best" departSpeed="max" from="502188340" to="503237958"/>
    <trip id="veh279" type="veh_passenger" depart="203.63" departLane="best" departSpeed="max" from="-318927946" to="96376628"/>
    <trip id="veh280" type="veh_passenger" depart="204.36" departLane="best" departSpeed="max" from="28552453" to="503237958"/>
    <trip id="veh281" type="veh_passenger" depart="205.09" departLane="best" departSpeed="max" from="314786388" to="1154086257#1"/>
    <trip id="veh282" type="veh_passenger" depart="205.82" departLane="best" departSpeed="max" from="318701882" to="96376628"/>
    <trip id="veh283" type="veh_passenger" depart="206.55" departLane="best" departSpeed="max" from="154914015" to="503237958"/>
    <trip id="veh289" type="veh_passenger" depart="210.93" departLane="best" departSpeed="max" from="263520955" to="270367431"/>
    <trip id="veh292" type="veh_passenger" depart="213.12" departLane="best" departSpeed="max" from="1111776067#0" to="503237958"/>
    <trip id="veh294" type="veh_passenger" depart="214.58" departLane="best" departSpeed="max" from="314786388" to="10624416"/>
    <trip id="veh296" type="veh_passenger" depart="216.04" departLane="best" departSpeed="max" from="-318918548" to="28657557"/>
    <trip id="veh301" type="veh_passenger" depart="219.69" departLane="best" departSpeed="max" from="311893916" to="10624427"/>
    <trip id="veh303" type="veh_passenger" depart="221.15" departLane="best" departSpeed="max" from="266113221" to="1154086257#1"/>
    <trip id="veh304" type="veh_passenger" depart="221.88" departLane="best" departSpeed="max" from="318701882" to="1111776063#2"/>
    <trip id="veh305" type="veh_passenger" depart="222.61" departLane="best" departSpeed="max" from="314786388" to="10624416"/>
    <trip id="veh311" type="veh_passenger" depart="226.99" departLane="best" departSpeed="max" from="96376640" to="174618574"/>
    <trip id="veh319" type="veh_passenger" depart="232.83" departLane="best" departSpeed="max" from="263520956" to="1154086257#1"/>
    <trip id="veh325" type="veh_passenger" depart="237.21" departLane="best" departSpeed="max" from="27085935" to="10624427"/>
    <trip id="veh327" type="veh_passenger" depart="238.67" departLane="best" departSpeed="max" from="318709475" to="270367431"/>
    <trip id="veh329" type="veh_passenger" depart="240.13" departLane="best" departSpeed="max" from="266113221" to="1160222017"/>
    <trip id="veh331" type="veh_passenger" depart="241.59" departLane="best" departSpeed="max" from="9931907" to="10624427"/>
    <trip id="veh332" type="veh_passenger" depart="242.32" departLane="best" departSpeed="max" from="318701882" to="9395409"/>
    <trip id="veh337" type="veh_passenger" depart="245.97" departLane="best" departSpeed="max" from="28173986" to="10624416"/>
    <trip id="veh339" type="veh_passenger" depart="247.43" departLane="best" departSpeed="max" from="314786388" to="1160222017"/>
    <trip id="veh341" type="veh_passenger" depart="248.89" departLane="best" departSpeed="max" from="36132391" to="270367431"/>
    <trip id="veh347" type="veh_passenger" depart="253.27" departLane="best" departSpeed="max" from="318701882" to="24228595"/>
    <trip id="veh353" type="veh_passenger" depart="257.65" departLane="best" departSpeed="max" from="196364901" to="10624401"/>
    <trip id="veh354" type="veh_passenger" depart="258.38" departLane="best" departSpeed="max" from="-318918548" to="96376628"/>
    <trip id="veh356" type="veh_passenger" depart="259.83" departLane="best" departSpeed="max" from="96376624" to="96376628"/>
    <trip id="veh361" type="veh_passenger" depart="263.48" departLane="best" departSpeed="max" from="28173986" to="270367431"/>
    <trip id="veh371" type="veh_passenger" depart="270.78" departLane="best" departSpeed="max" from="9931907" to="28173984"/>
    <trip id="veh374" type="veh_passenger" depart="272.97" departLane="best" departSpeed="max" from="318709475" to="270367431"/>
    <trip id="veh385" type="veh_passenger" depart="281.00" departLane="best" departSpeed="max" from="314786388" to="174618574"/>
    <trip id="veh386" type="veh_passenger" depart="281.73" departLane="best" departSpeed="max" from="154914015" to="503237958"/>
    <trip id="veh387" type="veh_passenger" depart="282.46" departLane="best" departSpeed="max" from="96376640" to="10624401"/>
    <trip id="veh395" type="veh_passenger" depart="288.30" departLane="best" departSpeed="max" from="26414045#0" to="-318918547"/>
    <trip id="veh404" type="veh_passenger" depart="294.87" departLane="best" departSpeed="max" from="311893901" to="503237958"/>
    <trip id="veh409" type="veh_passenger" depart="298.52" departLane="best" departSpeed="max" from="266113221" to="1160222017"/>
    <trip id="veh410" type="veh_passenger" depart="299.25" departLane="best" departSpeed="max" from="314786388" to="1154086257#1"/>
    <trip id="veh412" type="veh_passenger" depart="300.71" departLane="best" departSpeed="max" from="263520956" to="96376628"/>
    <trip id="veh413" type="veh_passenger" depart="301.44" departLane="best" departSpeed="max" from="196364906" to="284905729#0"/>
    <trip id="veh420" type="veh_passenger" depart="306.55" departLane="best" departSpeed="max" from="8052816" to="96376628"/>
    <trip id="veh421" type="veh_passenger" depart="307.28" departLane="best" departSpeed="max" from="318701882" to="1154086257#1"/>
    <trip id="veh430" type="veh_passenger" depart="313.85" departLane="best" departSpeed="max" from="620981808" to="270367431"/>
    <trip id="veh438" type="veh_passenger" depart="319.68" departLane="best" departSpeed="max" from="28657592" to="1154086257#1"/>
    <trip id="veh441" type="veh_passenger" depart="321.87" departLane="best" departSpeed="max" from="26414045#0" to="10624401"/>
    <trip id="veh443" type="veh_passenger" depart="323.33" departLane="best" departSpeed="max" from="9931907" to="10624416"/>
    <trip id="veh444" type="veh_passenger" depart="324.06" departLane="best" departSpeed="max" from="96376640" to="28173984"/>
    <trip id="veh445" type="veh_passenger" depart="324.79" departLane="best" departSpeed="max" from="154914015" to="24228595"/>
    <trip id="veh448" type="veh_passenger" depart="326.98" departLane="best" departSpeed="max" from="26452132" to="8081831"/>
    <trip id="veh453" type="veh_passenger" depart="330.63" departLane="best" departSpeed="max" from="311893850" to="503237958"/>
    <trip id="veh461" type="veh_passenger" depart="336.47" departLane="best" departSpeed="max" from="266113221" to="8081831"/>
    <trip id="veh463" type="veh_passenger" depart="337.93" departLane="best" departSpeed="max" from="42750044" to="1164402627"/>
    <trip id="veh464" type="veh_passenger" depart="338.66" departLane="best" departSpeed="max" from="374048028" to="29087198"/>
    <trip id="veh466" type="veh_passenger" depart="340.12" departLane="best" departSpeed="max" from="96376624" to="-318918547"/>
    <trip id="veh468" type="veh_passenger" depart="341.58" departLane="best" departSpeed="max" from="314786388" to="96376628"/>
    <trip id="veh469" type="veh_passenger" depart="342.31" departLane="best" departSpeed="max" from="96376624" to="503237958"/>
    <trip id="veh474" type="veh_passenger" depart="345.96" departLane="best" departSpeed="max" from="42750044" to="9395409"/>
    <trip id="veh486" type="veh_passenger" depart="354.72" departLane="best" departSpeed="max" from="96376624" to="1154086257#1"/>
    <trip id="veh487" type="veh_passenger" depart="355.45" departLane="best" departSpeed="max" from="318701882" to="-318918547"/>
    <trip id="veh490" type="veh_passenger" depart="357.64" departLane="best" departSpeed="max" from="96376624" to="-1164402632"/>
    <trip id="veh491" type="veh_passenger" depart="358.37" departLane="best" departSpeed="max" from="229911753" to="1160222017"/>
    <trip id="veh493" type="veh_passenger" depart="359.83" departLane="best" departSpeed="max" from="-318918548" to="28173985"/>
    <trip id="veh497" type="veh_passenger" depart="362.75" departLane="best" departSpeed="max" from="502188340" to="1160222017"/>
    <trip id="veh500" type="veh_passenger" depart="364.94" departLane="best" departSpeed="max" from="36132391" to="10624401"/>
    <trip id="veh518" type="veh_passenger" depart="378.07" departLane="best" departSpeed="max" from="266113221" to="1160222017"/>
    <trip id="veh527" type="veh_passenger" depart="384.64" departLane="best" departSpeed="max" from="266113221" to="1160222017"/>
    <trip id="veh533" type="veh_passenger" depart="389.02" departLane="best" departSpeed="max" from="196364906" to="1160222017"/>
    <trip id="veh541" type="veh_passenger" depart="394.86" departLane="best" departSpeed="max" from="28173986" to="24228595"/>
    <trip id="veh545" type="veh_passenger" depart="397.78" departLane="best" departSpeed="max" from="314786388" to="96376628"/>
    <trip id="veh552" type="veh_passenger" depart="402.89" departLane="best" departSpeed="max" from="502188340" to="96376628"/>
    <trip id="veh555" type="veh_passenger" depart="405.08" departLane="best" departSpeed="max" from="8052816" to="503237958"/>
    <trip id="veh557" type="veh_passenger" depart="406.54" departLane="best" departSpeed="max" from="314786388" to="10624427"/>
    <trip id="veh559" type="veh_passenger" depart="408.00" departLane="best" departSpeed="max" from="620981808" to="24228595"/>
    <trip id="veh564" type="veh_passenger" depart="411.65" departLane="best" departSpeed="max" from="229911753" to="28657557"/>
    <trip id="veh586" type="veh_passenger" depart="427.71" departLane="best" departSpeed="max" from="314786388" to="1154086257#1"/>
    <trip id="veh589" type="veh_passenger" depart="429.90" departLane="best" departSpeed="max" from="28552453" to="503237958"/>
    <trip id="veh596" type="veh_passenger" depart="435.00" departLane="best" departSpeed="max" from="-318927946" to="174618574"/>
    <trip id="veh598" type="veh_passenger" depart="436.46" departLane="best" departSpeed="max" from="318701882" to="503237958"/>
    <trip id="veh601" type="veh_passenger" depart="438.65" departLane="best" departSpeed="max" from="28552453" to="318918545"/>
    <trip id="veh606" type="veh_passenger" depart="442.30" departLane="best" departSpeed="max" from="27085935" to="270367431"/>
    <trip id="veh622" type="veh_passenger" depart="453.98" departLane="best" departSpeed="max" from="196364906" to="284905729#0"/>
    <trip id="veh624" type="veh_passenger" depart="455.44" departLane="best" departSpeed="max" from="1160222019#0" to="1154086257#1"/>
    <trip id="veh631" type="veh_passenger" depart="460.55" departLane="best" departSpeed="max" from="311893906" to="10624416"/>
    <trip id="veh632" type="veh_passenger" depart="461.28" departLane="best" departSpeed="max" from="314786388" to="28173984"/>
    <trip id="veh638" type="veh_passenger" depart="465.66" departLane="best" departSpeed="max" from="96376624" to="10624427"/>
    <trip id="veh643" type="veh_passenger" depart="469.31" departLane="best" departSpeed="max" from="28657592" to="1154086257#1"/>
    <trip id="veh649" type="veh_passenger" depart="473.69" departLane="best" departSpeed="max" from="-318918548" to="318927945"/>
    <trip id="veh656" type="veh_passenger" depart="478.80" departLane="best" departSpeed="max" from="311893906" to="10624401"/>
    <trip id="veh658" type="veh_passenger" depart="480.26" departLane="best" departSpeed="max" from="318701882" to="1160222017"/>
    <trip id="veh659" type="veh_passenger" depart="480.99" departLane="best" departSpeed="max" from="266113493" to="10624427"/>
    <trip id="veh660" type="veh_passenger" depart="481.72" departLane="best" departSpeed="max" from="374048028" to="1160222017"/>
    <trip id="veh662" type="veh_passenger" depart="483.18" departLane="best" departSpeed="max" from="96376624" to="96376628"/>
    <trip id="veh663" type="veh_passenger" depart="483.91" departLane="best" departSpeed="max" from="229911753" to="174618574"/>
    <trip id="veh664" type="veh_passenger" depart="484.64" departLane="best" departSpeed="max" from="96376624" to="503237958"/>
    <trip id="veh670" type="veh_passenger" depart="489.02" departLane="best" departSpeed="max" from="318709475" to="10624416"/>
    <trip id="veh673" type="veh_passenger" depart="491.20" departLane="best" departSpeed="max" from="1111776067#0" to="1160222017"/>
    <trip id="veh675" type="veh_passenger" depart="492.66" departLane="best" departSpeed="max" from="1154086256#0" to="96376628"/>
    <trip id="veh677" type="veh_passenger" depart="494.12" departLane="best" departSpeed="max" from="8052816" to="503237958"/>
    <trip id="veh688" type="veh_passenger" depart="502.15" departLane="best" departSpeed="max" from="24228712" to="37241807"/>
    <trip id="veh694" type="veh_passenger" depart="506.53" departLane="best" departSpeed="max" from="1160222019#0" to="1154086257#1"/>
    <trip id="veh697" type="veh_passenger" depart="508.72" departLane="best" departSpeed="max" from="266113221" to="174618574"/>
    <trip id="veh700" type="veh_passenger" depart="510.91" departLane="best" departSpeed="max" from="28657592" to="96376628"/>
    <trip id="veh703" type="veh_passenger" depart="513.10" departLane="best" departSpeed="max" from="318701882" to="270367431"/>
    <trip id="veh707" type="veh_passenger" depart="516.02" departLane="best" departSpeed="max" from="10624375#0" to="318927945"/>
    <trip id="veh709" type="veh_passenger" depart="517.48" departLane="best" departSpeed="max" from="28552453" to="503237958"/>
    <trip id="veh724" type="veh_passenger" depart="528.43" departLane="best" departSpeed="max" from="28552453" to="503237958"/>
    <trip id="veh731" type="veh_passenger" depart="533.54" departLane="best" departSpeed="max" from="9931907" to="10624416"/>
    <trip id="veh732" type="veh_passenger" depart="534.27" departLane="best" departSpeed="max" from="96376640" to="9395409"/>
    <trip id="veh740" type="veh_passenger" depart="540.11" departLane="best" departSpeed="max" from="27085935" to="270367431"/>
    <trip id="veh742" type="veh_passenger" depart="541.57" departLane="best" departSpeed="max" from="229911753" to="318918545"/>
    <trip id="veh752" type="veh_passenger" depart="548.86" departLane="best" departSpeed="max" from="502188340" to="1160222017"/>
    <trip id="veh754" type="veh_passenger" depart="550.32" departLane="best" departSpeed="max" from="-318918548" to="28173985"/>
    <trip id="veh758" type="veh_passenger" depart="553.24" departLane="best" departSpeed="max" from="502188340" to="284905729#0"/>
    <trip id="veh759" type="veh_passenger" depart="553.97" departLane="best" departSpeed="max" from="8052816" to="270367431"/>
    <trip id="veh760" type="veh_passenger" depart="554.70" departLane="best" departSpeed="max" from="374047813" to="174618574"/>
    <trip id="veh764" type="veh_passenger" depart="557.62" departLane="best" departSpeed="max" from="26623835" to="270367431"/>
    <trip id="veh767" type="veh_passenger" depart="559.81" departLane="best" departSpeed="max" from="266113221" to="318927945"/>
    <trip id="veh769" type="veh_passenger" depart="561.27" departLane="best" departSpeed="max" from="96376624" to="28173663"/>
    <trip id="veh773" type="veh_passenger" depart="564.19" departLane="best" departSpeed="max" from="10624375#0" to="96376628"/>
    <trip id="veh778" type="veh_passenger" depart="567.84" departLane="best" departSpeed="max" from="196560333#0" to="9395409"/>
    <trip id="veh784" type="veh_passenger" depart="572.22" departLane="best" departSpeed="max" from="96376624" to="-318918547"/>
    <trip id="veh785" type="veh_passenger" depart="572.95" departLane="best" departSpeed="max" from="311893850" to="28657557"/>
    <trip id="veh794" type="veh_passenger" depart="579.52" departLane="best" departSpeed="max" from="26414045#0" to="503237958"/>
    <trip id="veh795" type="veh_passenger" depart="580.25" departLane="best" departSpeed="max" from="311893906" to="10624416"/>
    <trip id="veh798" type="veh_passenger" depart="582.44" departLane="best" departSpeed="max" from="1111776064#0" to="270367431"/>
    <trip id="veh804" type="veh_passenger" depart="586.82" departLane="best" departSpeed="max" from="154914015" to="10624401"/>
    <trip id="veh809" type="veh_passenger" depart="590.47" departLane="best" departSpeed="max" from="27410071" to="10624427"/>
    <trip id="veh817" type="veh_passenger" depart="596.31" departLane="best" departSpeed="max" from="311893850" to="1160222017"/>
    <trip id="veh824" type="veh_passenger" depart="601.42" departLane="best" departSpeed="max" from="26452132" to="318927945"/>
    <trip id="veh831" type="veh_passenger" depart="606.52" departLane="best" departSpeed="max" from="26452132" to="-1172037593"/>
    <trip id="veh833" type="veh_passenger" depart="607.98" departLane="best" departSpeed="max" from="263520956" to="1160222017"/>
    <trip id="veh834" type="veh_passenger" depart="608.71" departLane="best" departSpeed="max" from="28552453" to="174618574"/>
    <trip id="veh835" type="veh_passenger" depart="609.44" departLane="best" departSpeed="max" from="196364901" to="270367431"/>
    <trip id="veh837" type="veh_passenger" depart="610.90" departLane="best" departSpeed="max" from="318701882" to="10624427"/>
    <trip id="veh838" type="veh_passenger" depart="611.63" departLane="best" departSpeed="max" from="196364906" to="503237958"/>
    <trip id="veh843" type="veh_passenger" depart="615.28" departLane="best" departSpeed="max" from="374047813" to="28657557"/>
    <trip id="veh844" type="veh_passenger" depart="616.01" departLane="best" departSpeed="max" from="263520956" to="96376628"/>
    <trip id="veh857" type="veh_passenger" depart="625.50" departLane="best" departSpeed="max" from="196364901" to="28173984"/>
    <trip id="veh859" type="veh_passenger" depart="626.96" departLane="best" departSpeed="max" from="10624375#0" to="8081831"/>
    <trip id="veh861" type="veh_passenger" depart="628.42" departLane="best" departSpeed="max" from="318918557" to="28657557"/>
    <trip id="veh862" type="veh_passenger" depart="629.15" departLane="best" departSpeed="max" from="28657592" to="284905729#0"/>
    <trip id="veh865" type="veh_passenger" depart="631.34" departLane="best" departSpeed="max" from="1154086256#0" to="96376628"/>
    <trip id="veh872" type="veh_passenger" depart="636.45" departLane="best" departSpeed="max" from="96376624" to="503237958"/>
    <trip id="veh892" type="veh_passenger" depart="651.05" departLane="best" departSpeed="max" from="314786388" to="9395409"/>
    <trip id="veh895" type="veh_passenger" depart="653.24" departLane="best" departSpeed="max" from="7996430" to="96376628"/>
    <trip id="veh897" type="veh_passenger" depart="654.70" departLane="best" departSpeed="max" from="96376624" to="96376628"/>
    <trip id="veh900" type="veh_passenger" depart="656.89" departLane="best" departSpeed="max" from="-318927946" to="96376628"/>
    <trip id="veh911" type="veh_passenger" depart="664.91" departLane="best" departSpeed="max" from="42750044" to="174618574"/>
    <trip id="veh914" type="veh_passenger" depart="667.10" departLane="best" departSpeed="max" from="196364901" to="10624401"/>
    <trip id="veh916" type="veh_passenger" depart="668.56" departLane="best" departSpeed="max" from="318709475" to="96376628"/>
    <trip id="veh924" type="veh_passenger" depart="674.40" departLane="best" departSpeed="max" from="7996430" to="10624416"/>
    <trip id="veh927" type="veh_passenger" depart="676.59" departLane="best" departSpeed="max" from="318701882" to="270367431"/>
    <trip id="veh940" type="veh_passenger" depart="686.08" departLane="best" departSpeed="max" from="-318918548" to="174618574"/>
    <trip id="veh941" type="veh_passenger" depart="686.81" departLane="best" departSpeed="max" from="374048028" to="1160222017"/>
    <trip id="veh944" type="veh_passenger" depart="689.00" departLane="best" departSpeed="max" from="374048028" to="28657557"/>
    <trip id="veh952" type="veh_passenger" depart="694.84" departLane="best" departSpeed="max" from="318918557" to="96376628"/>
    <trip id="veh953" type="veh_passenger" depart="695.57" departLane="best" departSpeed="max" from="28657592" to="1154086257#1"/>
    <trip id="veh955" type="veh_passenger" depart="697.03" departLane="best" departSpeed="max" from="229911753" to="28173985"/>
    <trip id="veh958" type="veh_passenger" depart="699.22" departLane="best" departSpeed="max" from="10624375#0" to="174618574"/>
    <trip id="veh959" type="veh_passenger" depart="699.95" departLane="best" departSpeed="max" from="266113221" to="28657557"/>
    <trip id="veh962" type="veh_passenger" depart="702.14" departLane="best" departSpeed="max" from="266113221" to="503237958"/>
    <trip id="veh964" type="veh_passenger" depart="703.60" departLane="best" departSpeed="max" from="154914015" to="9395409"/>