<?xml version="1.0" encoding="UTF-8"?>

<!-- generated on 2024-04-23 20:22:56.501639 by osmWebWizard.py v1_19_0+0000-baa66a0f364
<configuration>
    <net-file value="F:\SUMO\OptimalEmission-SUMO-ReinforcementLearning\2024-04-23-20-22-32\osm.net.xml.gz"/>
    <output-trip-file value="F:\SUMO\OptimalEmission-SUMO-ReinforcementLearning\2024-04-23-20-22-32\osm.motorcycle.trips.xml"/>
    <route-file value="F:\SUMO\OptimalEmission-SUMO-ReinforcementLearning\2024-04-23-20-22-32\osm.motorcycle.rou.xml"/>
    <prefix value="motorcycle"/>
    <trip-attributes value="departLane=&quot;best&quot;"/>
    <fringe-start-attributes value="departSpeed=&quot;max&quot;"/>
    <vehicle-class value="motorcycle"/>
    <fringe-factor value="2"/>
    <vclass value="motorcycle"/>
    <via-edge-types value="highway.motorway,highway.motorway_link,highway.trunk_link,highway.primary_link,highway.secondary_link,highway.tertiary_link"/>
    <max-distance value="1200.0"/>
    <remove-loops value="True"/>
    <validate value="True"/>
    <insertion-density value="4.0"/>
</configuration>
-->

<!-- generated on 2024-04-23 20:22:56 by Eclipse SUMO duarouter Version 1.19.0
<configuration xmlns:xsi="http://www.w3.org/2001/XMLSchema-instance" xsi:noNamespaceSchemaLocation="http://sumo.dlr.de/xsd/duarouterConfiguration.xsd">

    <input>
        <net-file value="F:\SUMO\OptimalEmission-SUMO-ReinforcementLearning\2024-04-23-20-22-32\osm.net.xml.gz"/>
        <route-files value="F:\SUMO\OptimalEmission-SUMO-ReinforcementLearning\2024-04-23-20-22-32\osm.motorcycle.trips.xml"/>
    </input>

    <output>
        <output-file value="F:\SUMO\OptimalEmission-SUMO-ReinforcementLearning\2024-04-23-20-22-32\osm.motorcycle.trips.xml.tmp"/>
        <alternatives-output value="NUL"/>
        <write-trips value="true"/>
    </output>

    <processing>
        <remove-loops value="true"/>
    </processing>

    <time>
        <begin value="0.0"/>
        <end value="3600.0"/>
    </time>

    <report>
        <no-warnings value="true"/>
        <ignore-errors value="true"/>
        <no-step-log value="true"/>
    </report>

</configuration>
-->

<routes xmlns:xsi="http://www.w3.org/2001/XMLSchema-instance" xsi:noNamespaceSchemaLocation="http://sumo.dlr.de/xsd/routes_file.xsd">
    <vType id="motorcycle_motorcycle" vClass="motorcycle"/>
    <trip id="motorcycle0" type="motorcycle_motorcycle" depart="0.00" departLane="best" from="128521811" to="-424630866#1"/>
    <trip id="motorcycle1" type="motorcycle_motorcycle" depart="2.52" departLane="best" from="575155217#1" to="447927890#1"/>
    <trip id="motorcycle2" type="motorcycle_motorcycle" depart="5.03" departLane="best" departSpeed="max" from="-431548664#1" to="-467061960"/>
    <trip id="motorcycle3" type="motorcycle_motorcycle" depart="7.55" departLane="best" from="577909639#0" to="46892968#0"/>
    <trip id="motorcycle4" type="motorcycle_motorcycle" depart="10.06" departLane="best" from="8579700#2" to="424389521#2"/>
    <trip id="motorcycle5" type="motorcycle_motorcycle" depart="12.58" departLane="best" departSpeed="max" from="174191354" to="935537752#0"/>
    <trip id="motorcycle6" type="motorcycle_motorcycle" depart="15.09" departLane="best" departSpeed="max" from="425925625" to="425846511#1"/>
    <trip id="motorcycle8" type="motorcycle_motorcycle" depart="20.13" departLane="best" from="38709148#1" to="435973647"/>
    <trip id="motorcycle9" type="motorcycle_motorcycle" depart="22.64" departLane="best" from="425926573#5" to="278916128#2"/>
    <trip id="motorcycle10" type="motorcycle_motorcycle" depart="25.16" departLane="best" from="252790571" to="141294961#4"/>
    <trip id="motorcycle11" type="motorcycle_motorcycle" depart="27.67" departLane="best" from="981327957" to="38508516#3"/>
    <trip id="motorcycle12" type="motorcycle_motorcycle" depart="30.19" departLane="best" from="-550481704#2" to="342616608"/>
    <trip id="motorcycle13" type="motorcycle_motorcycle" depart="32.70" departLane="best" from="981327955" to="38631715#3"/>
    <trip id="motorcycle14" type="motorcycle_motorcycle" depart="35.22" departLane="best" from="944861931#1" to="796505509"/>
    <trip id="motorcycle15" type="motorcycle_motorcycle" depart="37.74" departLane="best" from="366428463#1" to="936913397#0"/>
    <trip id="motorcycle16" type="motorcycle_motorcycle" depart="40.25" departLane="best" from="810899016#2" to="199121003#0"/>
    <trip id="motorcycle17" type="motorcycle_motorcycle" depart="42.77" departLane="best" from="37916449#2" to="128508563#2"/>
    <trip id="motorcycle18" type="motorcycle_motorcycle" depart="45.28" departLane="best" from="48802846" to="409861328#1"/>
    <trip id="motorcycle19" type="motorcycle_motorcycle" depart="47.80" departLane="best" from="51835049#0" to="38709148#0"/>
    <trip id="motorcycle20" type="motorcycle_motorcycle" depart="50.31" departLane="best" from="1005029796#1" to="235497125#1"/>
    <trip id="motorcycle21" type="motorcycle_motorcycle" depart="52.83" departLane="best" from="810899020" to="936379730#1"/>
    <trip id="motorcycle22" type="motorcycle_motorcycle" depart="55.35" departLane="best" from="491421502#2" to="936824210#0"/>
    <trip id="motorcycle23" type="motorcycle_motorcycle" depart="57.86" departLane="best" from="978208527#1" to="425930856#1"/>
    <trip id="motorcycle24" type="motorcycle_motorcycle" depart="60.38" departLane="best" from="312280065#2" to="38630170#1"/>
    <trip id="motorcycle25" type="motorcycle_motorcycle" depart="62.89" departLane="best" from="424632413" to="425926579#1"/>
    <trip id="motorcycle26" type="motorcycle_motorcycle" depart="65.41" departLane="best" from="454700603#1" to="8579908"/>
    <trip id="motorcycle27" type="motorcycle_motorcycle" depart="67.92" departLane="best" from="134365461#2" to="430129437#0"/>
    <trip id="motorcycle29" type="motorcycle_motorcycle" depart="72.95" departLane="best" from="-37909866#1" to="542137841#1"/>
    <trip id="motorcycle30" type="motorcycle_motorcycle" depart="75.47" departLane="best" from="279007740#1" to="-37916388#2"/>
    <trip id="motorcycle31" type="motorcycle_motorcycle" depart="77.99" departLane="best" departSpeed="max" from="467061960" to="431548666#1"/>
    <trip id="motorcycle33" type="motorcycle_motorcycle" depart="83.02" departLane="best" departSpeed="max" from="788308774" to="183462538"/>
    <trip id="motorcycle34" type="motorcycle_motorcycle" depart="85.53" departLane="best" from="279007738#0" to="212723117#3"/>
    <trip id="motorcycle35" type="motorcycle_motorcycle" depart="88.05" departLane="best" from="38631696#1" to="-37909866#2"/>
    <trip id="motorcycle37" type="motorcycle_motorcycle" depart="93.08" departLane="best" departSpeed="max" from="172433906" to="524487872#1"/>
    <trip id="motorcycle38" type="motorcycle_motorcycle" depart="95.60" departLane="best" from="369630800#1" to="34431215#2"/>
    <trip id="motorcycle39" type="motorcycle_motorcycle" depart="98.11" departLane="best" from="936913397#1" to="978208527#2"/>
    <trip id="motorcycle40" type="motorcycle_motorcycle" depart="100.63" departLane="best" from="-943000087#1" to="-230593245#1"/>
    <trip id="motorcycle41" type="motorcycle_motorcycle" depart="103.14" departLane="best" from="944843845" to="424630819#0"/>
    <trip id="motorcycle42" type="motorcycle_motorcycle" depart="105.66" departLane="best" from="38630159#1" to="48651843"/>
    <trip id="motorcycle43" type="motorcycle_motorcycle" depart="108.17" departLane="best" from="37916461#1" to="424630837"/>
    <trip id="motorcycle44" type="motorcycle_motorcycle" depart="110.69" departLane="best" from="-945221624" to="944404759"/>
    <trip id="motorcycle45" type="motorcycle_motorcycle" depart="113.21" departLane="best" from="134364404#0" to="-8579210#0"/>
    <trip id="motorcycle46" type="motorcycle_motorcycle" depart="115.72" departLane="best" from="278920578" to="424630828"/>
    <trip id="motorcycle47" type="motorcycle_motorcycle" depart="118.24" departLane="best" from="425930856#1" to="230621653#0"/>
    <trip id="motorcycle48" type="motorcycle_motorcycle" depart="120.75" departLane="best" from="23013179#4" to="48661215#0"/>
    <trip id="motorcycle49" type="motorcycle_motorcycle" depart="123.27" departLane="best" from="992030492" to="981327955"/>
    <trip id="motorcycle50" type="motorcycle_motorcycle" depart="125.78" departLane="best" departSpeed="max" from="-425691410" to="134365461#1"/>
    <trip id="motorcycle51" type="motorcycle_motorcycle" depart="128.30" departLane="best" from="8375715#3" to="857070481#1"/>
    <trip id="motorcycle52" type="motorcycle_motorcycle" depart="130.82" departLane="best" from="424630860#2" to="961097965#3"/>
    <trip id="motorcycle53" type="motorcycle_motorcycle" depart="133.33" departLane="best" from="643958483#0" to="230621491#1"/>
    <trip id="motorcycle54" type="motorcycle_motorcycle" depart="135.85" departLane="best" from="79669499#0" to="79669499#1"/>
    <trip id="motorcycle55" type="motorcycle_motorcycle" depart="138.36" departLane="best" from="-454680854#1" to="424389523#0"/>
    <trip id="motorcycle56" type="motorcycle_motorcycle" depart="140.88" departLane="best" from="454601628" to="133125062"/>
    <trip id="motorcycle57" type="motorcycle_motorcycle" depart="143.39" departLane="best" from="279007740#1" to="212723114#0"/>
    <trip id="motorcycle58" type="motorcycle_motorcycle" depart="145.91" departLane="best" from="425850171#4" to="197054868#1"/>
    <trip id="motorcycle59" type="motorcycle_motorcycle" depart="148.43" departLane="best" departSpeed="max" from="-933600358" to="-935890057"/>
    <trip id="motorcycle60" type="motorcycle_motorcycle" depart="150.94" departLane="best" from="8579520#1" to="-134364076#0"/>
    <trip id="motorcycle61" type="motorcycle_motorcycle" depart="153.46" departLane="best" from="519383893#1" to="-8579169#0"/>
    <trip id="motorcycle62" type="motorcycle_motorcycle" depart="155.97" departLane="best" from="788308777" to="945530874"/>
    <trip id="motorcycle63" type="motorcycle_motorcycle" depart="158.49" departLane="best" departSpeed="max" from="524259568" to="-577924483#0"/>
    <trip id="motorcycle64" type="motorcycle_motorcycle" depart="161.00" departLane="best" from="944861931#0" to="128508563#1"/>
    <trip id="motorcycle66" type="motorcycle_motorcycle" depart="166.04" departLane="best" departSpeed="max" from="38627954#0" to="454700603#0"/>
    <trip id="motorcycle67" type="motorcycle_motorcycle" depart="168.55" departLane="best" from="22999960#1" to="766784999"/>
    <trip id="motorcycle68" type="motorcycle_motorcycle" depart="171.07" departLane="best" from="-454680854#0" to="230621653#1"/>
    <trip id="motorcycle69" type="motorcycle_motorcycle" depart="173.58" departLane="best" departSpeed="max" from="-682460399" to="334434102"/>
    <trip id="motorcycle70" type="motorcycle_motorcycle" depart="176.10" departLane="best" from="8579700#1" to="425854842"/>
    <trip id="motorcycle71" type="motorcycle_motorcycle" depart="178.61" departLane="best" from="1005029796#1" to="22999717"/>
    <trip id="motorcycle72" type="motorcycle_motorcycle" depart="181.13" departLane="best" departSpeed="max" from="330594516#0" to="134365461#2"/>
    <trip id="motorcycle73" type="motorcycle_motorcycle" depart="183.64" departLane="best" from="-37909866#3" to="8579723"/>
    <trip id="motorcycle75" type="motorcycle_motorcycle" depart="188.68" departLane="best" from="755536601#1" to="424632413"/>
    <trip id="motorcycle77" type="motorcycle_motorcycle" depart="193.71" departLane="best" from="128508555#1" to="447007235#1"/>
    <trip id="motorcycle78" type="motorcycle_motorcycle" depart="196.22" departLane="best" from="479772615#1" to="51835034#1"/>
    <trip id="motorcycle79" type="motorcycle_motorcycle" depart="198.74" departLane="best" departSpeed="max" from="108358684" to="943031362#1"/>
    <trip id="motorcycle80" type="motorcycle_motorcycle" depart="201.25" departLane="best" from="369630801#1" to="576932607#0"/>
    <trip id="motorcycle81" type="motorcycle_motorcycle" depart="203.77" departLane="best" departSpeed="max" from="8579210#0" to="425850168#1"/>
    <trip id="motorcycle82" type="motorcycle_motorcycle" depart="206.29" departLane="best" from="454680853" to="38508502#0"/>
    <trip id="motorcycle83" type="motorcycle_motorcycle" depart="208.80" departLane="best" from="8579495#0" to="476994771"/>
    <trip id="motorcycle84" type="motorcycle_motorcycle" depart="211.32" departLane="best" from="14406786#0" to="425926847#1"/>
    <trip id="motorcycle85" type="motorcycle_motorcycle" depart="213.83" departLane="best" from="425691907" to="211556999#0"/>
    <trip id="motorcycle86" type="motorcycle_motorcycle" depart="216.35" departLane="best" from="448209710#1" to="-381973560#0"/>
    <trip id="motorcycle87" type="motorcycle_motorcycle" depart="218.86" departLane="best" from="25953774#0" to="409861831#0"/>
    <trip id="motorcycle88" type="motorcycle_motorcycle" depart="221.38" departLane="best" departSpeed="max" from="277794712#0" to="134363381"/>
    <trip id="motorcycle89" type="motorcycle_motorcycle" depart="223.90" departLane="best" from="780228296" to="499375392"/>
    <trip id="motorcycle90" type="motorcycle_motorcycle" depart="226.41" departLane="best" from="244936623#0" to="-128508551"/>
    <trip id="motorcycle91" type="motorcycle_motorcycle" depart="228.93" departLane="best" from="235497128#0" to="487857215"/>
    <trip id="motorcycle92" type="motorcycle_motorcycle" depart="231.44" departLane="best" from="278920578" to="48651842"/>
    <trip id="motorcycle93" type="motorcycle_motorcycle" depart="233.96" departLane="best" from="128521811" to="141294961#4"/>
    <trip id="motorcycle94" type="motorcycle_motorcycle" depart="236.47" departLane="best" from="255845156#5" to="1231761026#0"/>
    <trip id="motorcycle95" type="motorcycle_motorcycle" depart="238.99" departLane="best" departSpeed="max" from="-211556987#2" to="425929169#0"/>
    <trip id="motorcycle96" type="motorcycle_motorcycle" depart="241.51" departLane="best" from="-8103459#0" to="37916369#4"/>
    <trip id="motorcycle97" type="motorcycle_motorcycle" depart="244.02" departLane="best" from="-37909866#4" to="255838492#3"/>
    <trip id="motorcycle98" type="motorcycle_motorcycle" depart="246.54" departLane="best" from="128515109#5" to="237048431"/>
    <trip id="motorcycle99" type="motorcycle_motorcycle" depart="249.05" departLane="best" from="425925652#0" to="524256403#1"/>
    <trip id="motorcycle100" type="motorcycle_motorcycle" depart="251.57" departLane="best" from="936372777#2" to="128838918"/>
    <trip id="motorcycle101" type="motorcycle_motorcycle" depart="254.08" departLane="best" from="437192721#1" to="507867257"/>
    <trip id="motorcycle102" type="motorcycle_motorcycle" depart="256.60" departLane="best" departSpeed="max" from="647497031" to="944828264"/>
    <trip id="motorcycle103" type="motorcycle_motorcycle" depart="259.12" departLane="best" from="454700603#0" to="936441864"/>
    <trip id="motorcycle104" type="motorcycle_motorcycle" depart="261.63" departLane="best" from="942243506#0" to="278916133"/>
    <trip id="motorcycle105" type="motorcycle_motorcycle" depart="264.15" departLane="best" from="454570253" to="-425869965"/>
    <trip id="motorcycle106" type="motorcycle_motorcycle" depart="266.66" departLane="best" from="762552389" to="425691428"/>
    <trip id="motorcycle107" type="motorcycle_motorcycle" depart="269.18" departLane="best" from="521381109#0" to="237455906"/>
    <trip id="motorcycle108" type="motorcycle_motorcycle" depart="271.69" departLane="best" from="37916467" to="683275990#3"/>
    <trip id="motorcycle109" type="motorcycle_motorcycle" depart="274.21" departLane="best" from="801981836#3" to="46892969#4"/>
    <trip id="motorcycle110" type="motorcycle_motorcycle" depart="276.73" departLane="best" from="179551764#0" to="780170819"/>
    <trip id="motorcycle111" type="motorcycle_motorcycle" depart="279.24" departLane="best" departSpeed="max" from="702319653" to="-431546930"/>
    <trip id="motorcycle112" type="motorcycle_motorcycle" depart="281.76" departLane="best" from="128515109#6" to="565914241#2"/>
    <trip id="motorcycle113" type="motorcycle_motorcycle" depart="284.27" departLane="best" departSpeed="max" from="-431548664#1" to="-142906168"/>
    <trip id="motorcycle114" type="motorcycle_motorcycle" depart="286.79" departLane="best" from="1231761026#1" to="140477620#1"/>
    <trip id="motorcycle116" type="motorcycle_motorcycle" depart="291.82" departLane="best" from="128508555#1" to="15260356"/>
    <trip id="motorcycle117" type="motorcycle_motorcycle" depart="294.33" departLane="best" from="38508516#2" to="211556999#0"/>
    <trip id="motorcycle118" type="motorcycle_motorcycle" depart="296.85" departLane="best" departSpeed="max" from="8103468#0" to="424630809#0"/>
    <trip id="motorcycle119" type="motorcycle_motorcycle" depart="299.37" departLane="best" from="674506709#0" to="279007739"/>
    <trip id="motorcycle120" type="motorcycle_motorcycle" depart="301.88" departLane="best" from="405495014#4" to="230628804#3"/>
    <trip id="motorcycle121" type="motorcycle_motorcycle" depart="304.40" departLane="best" from="976120033#1" to="-8579169#1"/>
    <trip id="motorcycle122" type="motorcycle_motorcycle" depart="306.91" departLane="best" from="488673698#1" to="425694030#1"/>
    <trip id="motorcycle123" type="motorcycle_motorcycle" depart="309.43" departLane="best" from="542427434#2" to="15069427#2"/>
    <trip id="motorcycle124" type="motorcycle_motorcycle" depart="311.94" departLane="best" from="425691399" to="425846511#2"/>
    <trip id="motorcycle127" type="motorcycle_motorcycle" depart="319.49" departLane="best" from="-810899020" to="454570244#0"/>
    <trip id="motorcycle128" type="motorcycle_motorcycle" depart="322.01" departLane="best" from="447007235#1" to="37916351#3"/>
    <trip id="motorcycle129" type="motorcycle_motorcycle" depart="324.52" departLane="best" departSpeed="max" from="524259568" to="425925610#1"/>
    <trip id="motorcycle130" type="motorcycle_motorcycle" depart="327.04" departLane="best" from="279753892#2" to="416452348#1"/>
    <trip id="motorcycle131" type="motorcycle_motorcycle" depart="329.55" departLane="best" from="425925621" to="867254103#0"/>
    <trip id="motorcycle132" type="motorcycle_motorcycle" depart="332.07" departLane="best" from="197054866#4" to="933595464#0"/>
    <trip id="motorcycle133" type="motorcycle_motorcycle" depart="334.59" departLane="best" from="277794712#1" to="369630802#1"/>
    <trip id="motorcycle134" type="motorcycle_motorcycle" depart="337.10" departLane="best" departSpeed="max" from="-431546514" to="944795096"/>
    <trip id="motorcycle136" type="motorcycle_motorcycle" depart="342.13" departLane="best" from="425929169#3" to="211556980#1"/>
    <trip id="motorcycle137" type="motorcycle_motorcycle" depart="344.65" departLane="best" from="278916129" to="48802837#1"/>
    <trip id="motorcycle138" type="motorcycle_motorcycle" depart="347.16" departLane="best" from="-37909861#2" to="425934198#4"/>
    <trip id="motorcycle139" type="motorcycle_motorcycle" depart="349.68" departLane="best" from="235497097#0" to="237048446#2"/>
    <trip id="motorcycle140" type="motorcycle_motorcycle" depart="352.20" departLane="best" from="425930849#2" to="786987811"/>
    <trip id="motorcycle141" type="motorcycle_motorcycle" depart="354.71" departLane="best" from="197054866#1" to="936114482"/>
    <trip id="motorcycle142" type="motorcycle_motorcycle" depart="357.23" departLane="best" from="369630800#0" to="231281381#2"/>
    <trip id="motorcycle143" type="motorcycle_motorcycle" depart="359.74" departLane="best" from="38630170#1" to="312280065#1"/>
    <trip id="motorcycle144" type="motorcycle_motorcycle" depart="362.26" departLane="best" from="48661203#1" to="425925621"/>
    <trip id="motorcycle145" type="motorcycle_motorcycle" depart="364.77" departLane="best" from="312280065#2" to="447927890#1"/>
    <trip id="motorcycle146" type="motorcycle_motorcycle" depart="367.29" departLane="best" from="424630837" to="16975107"/>
    <trip id="motorcycle147" type="motorcycle_motorcycle" depart="369.81" departLane="best" from="37253813#0" to="856557595"/>
    <trip id="motorcycle148" type="motorcycle_motorcycle" depart="372.32" departLane="best" from="454599575" to="38508516#1"/>
    <trip id="motorcycle149" type="motorcycle_motorcycle" depart="374.84" departLane="best" from="909387494" to="38508515#2"/>
    <trip id="motorcycle150" type="motorcycle_motorcycle" depart="377.35" departLane="best" from="8307077#2" to="801981836#3"/>
    <trip id="motorcycle151" type="motorcycle_motorcycle" depart="379.87" departLane="best" from="183462549" to="-560266874#1"/>
    <trip id="motorcycle152" type="motorcycle_motorcycle" depart="382.38" departLane="best" from="37916483#0" to="682460399"/>
    <trip id="motorcycle154" type="motorcycle_motorcycle" depart="387.42" departLane="best" from="37916369#3" to="1031685924#1"/>
    <trip id="motorcycle155" type="motorcycle_motorcycle" depart="389.93" departLane="best" from="423734890#1" to="16257487#0"/>
    <trip id="motorcycle156" type="motorcycle_motorcycle" depart="392.45" departLane="best" from="425929162#2" to="68280131"/>
    <trip id="motorcycle157" type="motorcycle_motorcycle" depart="394.96" departLane="best" from="945631150" to="37916618"/>
    <trip id="motorcycle158" type="motorcycle_motorcycle" depart="397.48" departLane="best" departSpeed="max" from="-251867549#1" to="37918173#2"/>
    <trip id="motorcycle159" type="motorcycle_motorcycle" depart="399.99" departLane="best" from="424586831" to="8103483"/>
    <trip id="motorcycle160" type="motorcycle_motorcycle" depart="402.51" departLane="best" from="37918173#0" to="37916357#1"/>
    <trip id="motorcycle161" type="motorcycle_motorcycle" depart="405.03" departLane="best" from="425926579#3" to="108358683#1"/>
    <trip id="motorcycle162" type="motorcycle_motorcycle" depart="407.54" departLane="best" from="425925652#0" to="780170819"/>
    <trip id="motorcycle163" type="motorcycle_motorcycle" depart="410.06" departLane="best" from="773558342" to="788308776#0"/>
    <trip id="motorcycle164" type="motorcycle_motorcycle" depart="412.57" departLane="best" from="470252931#1" to="369637281"/>
    <trip id="motorcycle165" type="motorcycle_motorcycle" depart="415.09" departLane="best" from="-369631338" to="565903323#0"/>
    <trip id="motorcycle166" type="motorcycle_motorcycle" depart="417.60" departLane="best" from="409861330#1" to="565539527#2"/>
    <trip id="motorcycle167" type="motorcycle_motorcycle" depart="420.12" departLane="best" from="-858047600" to="-37916369#3"/>
    <trip id="motorcycle168" type="motorcycle_motorcycle" depart="422.63" departLane="best" from="15260500#0" to="186371501"/>
    <trip id="motorcycle169" type="motorcycle_motorcycle" depart="425.15" departLane="best" from="234827302#1" to="424630860#3"/>
    <trip id="motorcycle170" type="motorcycle_motorcycle" depart="427.67" departLane="best" from="37916351#5" to="167147487"/>
    <trip id="motorcycle172" type="motorcycle_motorcycle" depart="432.70" departLane="best" from="-196799743" to="568491295"/>
    <trip id="motorcycle173" type="motorcycle_motorcycle" depart="435.21" departLane="best" from="425850171#1" to="577909640#1"/>
    <trip id="motorcycle174" type="motorcycle_motorcycle" depart="437.73" departLane="best" from="426247933" to="-456287380#0"/>
    <trip id="motorcycle175" type="motorcycle_motorcycle" depart="440.24" departLane="best" from="425926846#2" to="72916500#0"/>
    <trip id="motorcycle176" type="motorcycle_motorcycle" depart="442.76" departLane="best" from="425694029" to="8579751"/>
    <trip id="motorcycle177" type="motorcycle_motorcycle" depart="445.28" departLane="best" from="324535432" to="424630819#2"/>
    <trip id="motorcycle178" type="motorcycle_motorcycle" depart="447.79" departLane="best" from="204071640" to="48651842"/>
    <trip id="motorcycle179" type="motorcycle_motorcycle" depart="450.31" departLane="best" departSpeed="max" from="108358684" to="-942638906"/>
    <trip id="motorcycle180" type="motorcycle_motorcycle" depart="452.82" departLane="best" from="38508504" to="901219749"/>
    <trip id="motorcycle181" type="motorcycle_motorcycle" depart="455.34" departLane="best" from="679361689#0" to="37916494#1"/>
    <trip id="motorcycle182" type="motorcycle_motorcycle" depart="457.85" departLane="best" from="576932607#1" to="48651841#0"/>
    <trip id="motorcycle183" type="motorcycle_motorcycle" depart="460.37" departLane="best" from="405495014#1" to="904101256"/>
    <trip id="motorcycle184" type="motorcycle_motorcycle" depart="462.89" departLane="best" from="679196742#2" to="867258184"/>
    <trip id="motorcycle185" type="motorcycle_motorcycle" depart="465.40" departLane="best" from="-8579169#0" to="936372777#2"/>
    <trip id="motorcycle186" type="motorcycle_motorcycle" depart="467.92" departLane="best" from="212723117#2" to="37916536#1"/>
    <trip id="motorcycle187" type="motorcycle_motorcycle" depart="470.43" departLane="best" from="425930851" to="935568390"/>
    <trip id="motorcycle190" type="motorcycle_motorcycle" depart="477.98" departLane="best" from="-75316979#1" to="37916351#4"/>
    <trip id="motorcycle191" type="motorcycle_motorcycle" depart="480.50" departLane="best" from="425927088" to="425929162#2"/>
    <trip id="motorcycle192" type="motorcycle_motorcycle" depart="483.01" departLane="best" departSpeed="max" from="-424630827#1" to="498875214"/>
    <trip id="motorcycle193" type="motorcycle_motorcycle" depart="485.53" departLane="best" departSpeed="max" from="-933600358" to="237861718"/>
    <trip id="motorcycle195" type="motorcycle_motorcycle" depart="490.56" departLane="best" departSpeed="max" from="-8841627#1" to="936824211#1"/>
    <trip id="motorcycle196" type="motorcycle_motorcycle" depart="493.07" departLane="best" from="15260247#0" to="128508555#3"/>
    <trip id="motorcycle197" type="motorcycle_motorcycle" depart="495.59" departLane="best" from="425926848#1" to="936441864"/>
    <trip id="motorcycle198" type="motorcycle_motorcycle" depart="498.11" departLane="best" from="134365461#1" to="235497125#0"/>
    <trip id="motorcycle199" type="motorcycle_motorcycle" depart="500.62" departLane="best" from="-456380334#0" to="38508498"/>
    <trip id="motorcycle200" type="motorcycle_motorcycle" depart="503.14" departLane="best" from="37916343#4" to="279007743#0"/>
    <trip id="motorcycle202" type="motorcycle_motorcycle" depart="508.17" departLane="best" from="355326291#2" to="15260367"/>
    <trip id="motorcycle203" type="motorcycle_motorcycle" depart="510.68" departLane="best" from="424415196#2" to="424396207#2"/>
    <trip id="motorcycle204" type="motorcycle_motorcycle" depart="513.20" departLane="best" from="454700603#0" to="755536600"/>
    <trip id="motorcycle205" type="motorcycle_motorcycle" depart="515.72" departLane="best" from="424389513#2" to="586624080"/>
    <trip id="motorcycle207" type="motorcycle_motorcycle" depart="520.75" departLane="best" from="425923721#0" to="-196799729#1"/>
    <trip id="motorcycle209" type="motorcycle_motorcycle" depart="525.78" departLane="best" from="425849973#0" to="-22999494"/>
    <trip id="motorcycle211" type="motorcycle_motorcycle" depart="530.81" departLane="best" from="425934931" to="211556988"/>
    <trip id="motorcycle212" type="motorcycle_motorcycle" depart="533.32" departLane="best" from="252274187#1" to="425691414#1"/>
    <trip id="motorcycle213" type="motorcycle_motorcycle" depart="535.84" departLane="best" from="128515109#4" to="-945631150"/>
    <trip id="motorcycle214" type="motorcycle_motorcycle" depart="538.36" departLane="best" departSpeed="max" from="108358684" to="255845156#0"/>
    <trip id="motorcycle215" type="motorcycle_motorcycle" depart="540.87" departLane="best" from="454562735" to="330594516#1"/>
    <trip id="motorcycle216" type="motorcycle_motorcycle" depart="543.39" departLane="best" from="425455995" to="710195117#1"/>
    <trip id="motorcycle217" type="motorcycle_motorcycle" depart="545.90" departLane="best" departSpeed="max" from="907578693" to="431548665"/>
    <trip id="motorcycle218" type="motorcycle_motorcycle" depart="548.42" departLane="best" from="-48661211" to="38508517"/>
    <trip id="motorcycle219" type="motorcycle_motorcycle" depart="550.93" departLane="best" from="8579743#1" to="237815997#0"/>
    <trip id="motorcycle220" type="motorcycle_motorcycle" depart="553.45" departLane="best" from="621526225#1" to="-16652239"/>
    <trip id="motorcycle221" type="motorcycle_motorcycle" depart="555.97" departLane="best" from="-48651855#0" to="491421502#1"/>
    <trip id="motorcycle222" type="motorcycle_motorcycle" depart="558.48" departLane="best" from="212353005#2" to="212353005#0"/>
    <trip id="motorcycle223" type="motorcycle_motorcycle" depart="561.00" departLane="best" from="37916461#0" to="710195117#0"/>
    <trip id="motorcycle224" type="motorcycle_motorcycle" depart="563.51" departLane="best" from="-425923716#1" to="801981836#3"/>
    <trip id="motorcycle225" type="motorcycle_motorcycle" depart="566.03" departLane="best" from="780170816" to="425854163#1"/>
    <trip id="motorcycle226" type="motorcycle_motorcycle" depart="568.54" departLane="best" from="237048498" to="-37916369#9"/>
    <trip id="motorcycle227" type="motorcycle_motorcycle" depart="571.06" departLane="best" departSpeed="max" from="577924483#0" to="425934198#4"/>
    <trip id="motorcycle228" type="motorcycle_motorcycle" depart="573.58" departLane="best" from="230398376" to="37916462"/>
    <trip id="motorcycle229" type="motorcycle_motorcycle" depart="576.09" departLane="best" from="231281389#2" to="454670894"/>
    <trip id="motorcycle230" type="motorcycle_motorcycle" depart="578.61" departLane="best" from="37916464#0" to="128508552"/>
    <trip id="motorcycle231" type="motorcycle_motorcycle" depart="581.12" departLane="best" from="456287379" to="426247933"/>