<?xml version="1.0" encoding="UTF-8"?>

<!-- generated on 2024-04-23 20:23:10.695189 by osmWebWizard.py v1_19_0+0000-baa66a0f364
<configuration>
    <net-file value="F:\SUMO\OptimalEmission-SUMO-ReinforcementLearning\2024-04-23-20-22-32\osm.net.xml.gz"/>
    <output-trip-file value="F:\SUMO\OptimalEmission-SUMO-ReinforcementLearning\2024-04-23-20-22-32\osm.truck.trips.xml"/>
    <route-file value="F:\SUMO\OptimalEmission-SUMO-ReinforcementLearning\2024-04-23-20-22-32\osm.truck.rou.xml"/>
    <prefix value="truck"/>
    <trip-attributes value="departLane=&quot;best&quot;"/>
    <fringe-start-attributes value="departSpeed=&quot;max&quot;"/>
    <vehicle-class value="truck"/>
    <fringe-factor value="5"/>
    <vclass value="truck"/>
    <via-edge-types value="highway.motorway,highway.motorway_link,highway.trunk_link,highway.primary_link,highway.secondary_link,highway.tertiary_link"/>
    <min-distance value="600.0"/>
    <min-distance.fringe value="10.0"/>
    <remove-loops value="True"/>
    <validate value="True"/>
    <insertion-density value="8.0"/>
</configuration>
-->

<!-- generated on 2024-04-23 20:23:08 by Eclipse SUMO duarouter Version 1.19.0
<configuration xmlns:xsi="http://www.w3.org/2001/XMLSchema-instance" xsi:noNamespaceSchemaLocation="http://sumo.dlr.de/xsd/duarouterConfiguration.xsd">

    <input>
        <net-file value="F:\SUMO\OptimalEmission-SUMO-ReinforcementLearning\2024-04-23-20-22-32\osm.net.xml.gz"/>
        <route-files value="F:\SUMO\OptimalEmission-SUMO-ReinforcementLearning\2024-04-23-20-22-32\osm.truck.trips.xml"/>
    </input>

    <output>
        <output-file value="F:\SUMO\OptimalEmission-SUMO-ReinforcementLearning\2024-04-23-20-22-32\osm.truck.trips.xml.tmp"/>
        <alternatives-output value="NUL"/>
        <write-trips value="true"/>
    </output>

    <processing>
        <remove-loops value="true"/>
    </processing>

    <time>
        <begin value="0.0"/>
        <end value="3600.0"/>
    </time>

    <report>
        <no-warnings value="true"/>
        <ignore-errors value="true"/>
        <no-step-log value="true"/>
    </report>

</configuration>
-->

<routes xmlns:xsi="http://www.w3.org/2001/XMLSchema-instance" xsi:noNamespaceSchemaLocation="http://sumo.dlr.de/xsd/routes_file.xsd">
    <vType id="truck_truck" vClass="truck"/>
    <trip id="truck0" type="truck_truck" depart="0.00" departLane="best" from="-251628553" to="16257487#0"/>
    <trip id="truck1" type="truck_truck" depart="1.26" departLane="best" from="134365461#0" to="419513797#0"/>
    <trip id="truck2" type="truck_truck" depart="2.52" departLane="best" from="454693652" to="431548669"/>
    <trip id="truck3" type="truck_truck" depart="3.77" departLane="best" from="857070481#2" to="425923730#0"/>
    <trip id="truck6" type="truck_truck" depart="7.55" departLane="best" from="199918917#2" to="128511291#2"/>
    <trip id="truck8" type="truck_truck" depart="10.06" departLane="best" departSpeed="max" from="1191283730" to="425458285"/>
    <trip id="truck9" type="truck_truck" depart="11.32" departLane="best" from="565903327#1" to="-1231704238#2"/>
    <trip id="truck10" type="truck_truck" depart="12.58" departLane="best" from="211556999#0" to="1005029799#1"/>
    <trip id="truck11" type="truck_truck" depart="13.84" departLane="best" from="936379730#1" to="237048441#3"/>
    <trip id="truck12" type="truck_truck" depart="15.09" departLane="best" from="425930849#2" to="-430128415#0"/>
    <trip id="truck13" type="truck_truck" depart="16.35" departLane="best" from="72470713#1" to="425849973#1"/>
    <trip id="truck14" type="truck_truck" depart="17.61" departLane="best" from="37916483#1" to="945192154#0"/>
    <trip id="truck15" type="truck_truck" depart="18.87" departLane="best" departSpeed="max" from="231341699" to="424389524"/>
    <trip id="truck16" type="truck_truck" depart="20.13" departLane="best" departSpeed="max" from="647497031" to="425925621"/>
    <trip id="truck17" type="truck_truck" depart="21.38" departLane="best" from="766784998" to="424630827#1"/>
    <trip id="truck18" type="truck_truck" depart="22.64" departLane="best" departSpeed="max" from="431548664#0" to="-258534130#2"/>
    <trip id="truck19" type="truck_truck" depart="23.90" departLane="best" departSpeed="max" from="-425457913#1" to="142906166#3"/>
    <trip id="truck21" type="truck_truck" depart="26.41" departLane="best" departSpeed="max" from="424632407" to="245958740#1"/>
    <trip id="truck22" type="truck_truck" depart="27.67" departLane="best" departSpeed="max" from="230629152#0" to="128519867#0"/>
    <trip id="truck23" type="truck_truck" depart="28.93" departLane="best" from="-133124802" to="933595466#1"/>
    <trip id="truck24" type="truck_truck" depart="30.19" departLane="best" departSpeed="max" from="-804468956" to="454693651"/>
    <trip id="truck25" type="truck_truck" depart="31.45" departLane="best" departSpeed="max" from="-736245839#1" to="252790570#0"/>
    <trip id="truck26" type="truck_truck" depart="32.70" departLane="best" from="961097965#2" to="425930856#1"/>
    <trip id="truck27" type="truck_truck" depart="33.96" departLane="best" from="-38508505" to="431550234#0"/>
    <trip id="truck28" type="truck_truck" depart="35.22" departLane="best" from="128194053#3" to="-197054862#0"/>
    <trip id="truck29" type="truck_truck" depart="36.48" departLane="best" from="183462544" to="196799736#0"/>
    <trip id="truck30" type="truck_truck" depart="37.74" departLane="best" departSpeed="max" from="1080789236" to="935537752#4"/>
    <trip id="truck32" type="truck_truck" depart="40.25" departLane="best" from="8579858" to="37916359"/>
    <trip id="truck33" type="truck_truck" depart="41.51" departLane="best" departSpeed="max" from="131681593#0" to="16257487#4"/>
    <trip id="truck35" type="truck_truck" depart="44.02" departLane="best" from="38709150" to="8579426"/>
    <trip id="truck36" type="truck_truck" depart="45.28" departLane="best" from="237048502#5" to="134363700#0"/>
    <trip id="truck37" type="truck_truck" depart="46.54" departLane="best" from="981327956#1" to="38583820"/>
    <trip id="truck38" type="truck_truck" depart="47.80" departLane="best" departSpeed="max" from="-425927626" to="-277794712#0"/>
    <trip id="truck39" type="truck_truck" depart="49.06" departLane="best" departSpeed="max" from="-431548664#1" to="425926846#2"/>
    <trip id="truck40" type="truck_truck" depart="50.31" departLane="best" from="519490880" to="333172873"/>
    <trip id="truck41" type="truck_truck" depart="51.57" departLane="best" from="-37916462" to="252790570#7"/>
    <trip id="truck42" type="truck_truck" depart="52.83" departLane="best" from="978208527#2" to="38709150"/>
    <trip id="truck43" type="truck_truck" depart="54.09" departLane="best" from="944451966" to="230623952#2"/>
    <trip id="truck44" type="truck_truck" depart="55.35" departLane="best" from="128508563#6" to="454576373"/>
    <trip id="truck45" type="truck_truck" depart="56.60" departLane="best" from="425929172#0" to="454601630#1"/>
    <trip id="truck46" type="truck_truck" depart="57.86" departLane="best" from="133124801#1" to="425934198#3"/>
    <trip id="truck47" type="truck_truck" depart="59.12" departLane="best" departSpeed="max" from="-431548666#1" to="369631338"/>
    <trip id="truck48" type="truck_truck" depart="60.38" departLane="best" departSpeed="max" from="289934632#0" to="936824211#0"/>
    <trip id="truck49" type="truck_truck" depart="61.63" departLane="best" from="79669499#0" to="183489045#3"/>
    <trip id="truck50" type="truck_truck" depart="62.89" departLane="best" from="8579733" to="-8103459#2"/>
    <trip id="truck51" type="truck_truck" depart="64.15" departLane="best" from="-779662527" to="929414408"/>
    <trip id="truck52" type="truck_truck" depart="65.41" departLane="best" departSpeed="max" from="424415196#0" to="971720328"/>
    <trip id="truck53" type="truck_truck" depart="66.67" departLane="best" from="479772613" to="409861830#1"/>
    <trip id="truck54" type="truck_truck" depart="67.92" departLane="best" from="491421503#2" to="38738612#1"/>
    <trip id="truck56" type="truck_truck" depart="70.44" departLane="best" from="801981836#3" to="702319652#1"/>
    <trip id="truck57" type="truck_truck" depart="71.70" departLane="best" departSpeed="max" from="181593973" to="-37909864#0"/>
    <trip id="truck58" type="truck_truck" depart="72.95" departLane="best" departSpeed="max" from="801981836#0" to="936107423"/>
    <trip id="truck59" type="truck_truck" depart="74.21" departLane="best" from="425923716#1" to="37916533#0"/>
    <trip id="truck61" type="truck_truck" depart="76.73" departLane="best" from="48651839" to="-75479791"/>
    <trip id="truck62" type="truck_truck" depart="77.99" departLane="best" departSpeed="max" from="333520065#0" to="424389513#1"/>
    <trip id="truck63" type="truck_truck" depart="79.24" departLane="best" from="131681593#1" to="8103473"/>
    <trip id="truck65" type="truck_truck" depart="81.76" departLane="best" from="37916494#5" to="454700603#0"/>
    <trip id="truck66" type="truck_truck" depart="83.02" departLane="best" from="1005029797" to="230628807#1"/>
    <trip id="truck67" type="truck_truck" depart="84.28" departLane="best" from="262851669#1" to="38630334#1"/>
    <trip id="truck68" type="truck_truck" depart="85.53" departLane="best" departSpeed="max" from="-431550231" to="134365461#3"/>
    <trip id="truck69" type="truck_truck" depart="86.79" departLane="best" from="128508552" to="134363702#0"/>
    <trip id="truck70" type="truck_truck" depart="88.05" departLane="best" from="37916640" to="425926848#2"/>
    <trip id="truck71" type="truck_truck" depart="89.31" departLane="best" from="128194053#3" to="8579700#1"/>
    <trip id="truck72" type="truck_truck" depart="90.56" departLane="best" from="-75479791" to="-381973560#0"/>
    <trip id="truck73" type="truck_truck" depart="91.82" departLane="best" from="932946871#0" to="424630809#7"/>
    <trip id="truck74" type="truck_truck" depart="93.08" departLane="best" departSpeed="max" from="330594516#0" to="521940067"/>
    <trip id="truck75" type="truck_truck" depart="94.34" departLane="best" from="565539538#1" to="128508556"/>
    <trip id="truck76" type="truck_truck" depart="95.60" departLane="best" departSpeed="max" from="-430127810" to="366428463#0"/>
    <trip id="truck77" type="truck_truck" depart="96.85" departLane="best" departSpeed="max" from="454570250" to="431548667"/>
    <trip id="truck78" type="truck_truck" depart="98.11" departLane="best" from="946525675" to="-431548664#0"/>
    <trip id="truck79" type="truck_truck" depart="99.37" departLane="best" from="766784998" to="168667915#0"/>
    <trip id="truck80" type="truck_truck" depart="100.63" departLane="best" from="250255250#1" to="211556983#0"/>
    <trip id="truck81" type="truck_truck" depart="101.89" departLane="best" from="128515109#0" to="907571895#2"/>
    <trip id="truck82" type="truck_truck" depart="103.14" departLane="best" from="994969688" to="710195117#0"/>
    <trip id="truck83" type="truck_truck" depart="104.40" departLane="best" from="944331977#0" to="918665414"/>
    <trip id="truck84" type="truck_truck" depart="105.66" departLane="best" departSpeed="max" from="72614035#0" to="1080789231#4"/>
    <trip id="truck85" type="truck_truck" depart="106.92" departLane="best" from="369630800#1" to="131681595"/>
    <trip id="truck86" type="truck_truck" depart="108.17" departLane="best" departSpeed="max" from="237048516" to="-37909866#1"/>
    <trip id="truck87" type="truck_truck" depart="109.43" departLane="best" departSpeed="max" from="231341699" to="961097961#1"/>
    <trip id="truck88" type="truck_truck" depart="110.69" departLane="best" from="131681593#1" to="521381109#1"/>
    <trip id="truck90" type="truck_truck" depart="113.21" departLane="best" from="38508502#0" to="454570245"/>
    <trip id="truck91" type="truck_truck" depart="114.46" departLane="best" from="577924483#2" to="23013076"/>
    <trip id="truck92" type="truck_truck" depart="115.72" departLane="best" from="944331977#0" to="447117762#1"/>
    <trip id="truck93" type="truck_truck" depart="116.98" departLane="best" from="37916524#0" to="470252928#1"/>
    <trip id="truck94" type="truck_truck" depart="118.24" departLane="best" from="37909866#3" to="424637889"/>
    <trip id="truck95" type="truck_truck" depart="119.49" departLane="best" departSpeed="max" from="37909864#0" to="762552388"/>
    <trip id="truck97" type="truck_truck" depart="122.01" departLane="best" from="423508799#0" to="431548668"/>
    <trip id="truck98" type="truck_truck" depart="123.27" departLane="best" departSpeed="max" from="128508558" to="-577923696#0"/>
    <trip id="truck99" type="truck_truck" depart="124.53" departLane="best" from="8375726#0" to="16257487#4"/>
    <trip id="truck100" type="truck_truck" depart="125.78" departLane="best" from="419513797#1" to="425925638#2"/>
    <trip id="truck101" type="truck_truck" depart="127.04" departLane="best" from="248758078#0" to="424632413"/>
    <trip id="truck102" type="truck_truck" depart="128.30" departLane="best" from="37916372#1" to="-933595464#0"/>
    <trip id="truck103" type="truck_truck" depart="129.56" departLane="best" from="1024004893" to="454562735"/>
    <trip id="truck106" type="truck_truck" depart="133.33" departLane="best" from="183462563" to="476994771"/>
    <trip id="truck107" type="truck_truck" depart="134.59" departLane="best" from="424586836" to="-37916358#2"/>
    <trip id="truck108" type="truck_truck" depart="135.85" departLane="best" from="986028741#1" to="978208527#2"/>
    <trip id="truck109" type="truck_truck" depart="137.10" departLane="best" from="-424630814#0" to="-130808670#3"/>
    <trip id="truck110" type="truck_truck" depart="138.36" departLane="best" from="131681593#1" to="933408125"/>
    <trip id="truck111" type="truck_truck" depart="139.62" departLane="best" from="8103465#0" to="8375715#0"/>
    <trip id="truck112" type="truck_truck" depart="140.88" departLane="best" departSpeed="max" from="230629152#0" to="1009145131"/>
    <trip id="truck113" type="truck_truck" depart="142.14" departLane="best" from="679196742#0" to="444667678"/>
    <trip id="truck114" type="truck_truck" depart="143.39" departLane="best" departSpeed="max" from="424586819" to="961097965#1"/>
    <trip id="truck115" type="truck_truck" depart="144.65" departLane="best" from="425850168#2" to="-128508553"/>
    <trip id="truck117" type="truck_truck" depart="147.17" departLane="best" from="425923723#4" to="934031944"/>
    <trip id="truck118" type="truck_truck" depart="148.43" departLane="best" departSpeed="max" from="-454683135" to="491421502#2"/>
    <trip id="truck119" type="truck_truck" depart="149.68" departLane="best" departSpeed="max" from="-431546514" to="424394652#2"/>
    <trip id="truck120" type="truck_truck" depart="150.94" departLane="best" from="134363702#2" to="425850165#2"/>
    <trip id="truck121" type="truck_truck" depart="152.20" departLane="best" from="444667678" to="128515109#6"/>
    <trip id="truck122" type="truck_truck" depart="153.46" departLane="best" from="424630866#1" to="183489045#5"/>
    <trip id="truck123" type="truck_truck" depart="154.71" departLane="best" from="72916473#0" to="8579700#1"/>
    <trip id="truck124" type="truck_truck" depart="155.97" departLane="best" from="710195117#1" to="-425934927"/>
    <trip id="truck125" type="truck_truck" depart="157.23" departLane="best" from="251867379" to="211060856#0"/>
    <trip id="truck127" type="truck_truck" depart="159.75" departLane="best" from="424632409#1" to="183489044"/>
    <trip id="truck128" type="truck_truck" depart="161.00" departLane="best" from="457093355#3" to="424389523#4"/>
    <trip id="truck129" type="truck_truck" depart="162.26" departLane="best" from="252790570#5" to="-128508558"/>
    <trip id="truck132" type="truck_truck" depart="166.04" departLane="best" from="679196742#2" to="424630866#1"/>
    <trip id="truck133" type="truck_truck" depart="167.29" departLane="best" departSpeed="max" from="-51835047" to="-736245839#0"/>
    <trip id="truck134" type="truck_truck" depart="168.55" departLane="best" departSpeed="max" from="181593973" to="8579495#1"/>
    <trip id="truck135" type="truck_truck" depart="169.81" departLane="best" departSpeed="max" from="128511300" to="-431550232#0"/>
    <trip id="truck136" type="truck_truck" depart="171.07" departLane="best" from="49436729" to="857152233"/>
    <trip id="truck137" type="truck_truck" depart="172.32" departLane="best" from="237815997#1" to="425926573#1"/>
    <trip id="truck138" type="truck_truck" depart="173.58" departLane="best" from="577924483#1" to="932946871#0"/>
    <trip id="truck139" type="truck_truck" depart="174.84" departLane="best" departSpeed="max" from="565914241#0" to="842455159"/>
    <trip id="truck140" type="truck_truck" depart="176.10" departLane="best" from="196799743" to="46892383#1"/>
    <trip id="truck141" type="truck_truck" depart="177.36" departLane="best" from="128508562" to="933038489#0"/>
    <trip id="truck142" type="truck_truck" depart="178.61" departLane="best" from="-550481704#1" to="788308776#1"/>
    <trip id="truck143" type="truck_truck" depart="179.87" departLane="best" departSpeed="max" from="565914241#0" to="196799736#0"/>
    <trip id="truck144" type="truck_truck" depart="181.13" departLane="best" from="513951450" to="-462992553"/>
    <trip id="truck145" type="truck_truck" depart="182.39" departLane="best" from="788308775#0" to="780578484"/>
    <trip id="truck146" type="truck_truck" depart="183.64" departLane="best" from="1231704252#1" to="643958483#1"/>
    <trip id="truck147" type="truck_truck" depart="184.90" departLane="best" departSpeed="max" from="292218189#0" to="230615749#0"/>
    <trip id="truck149" type="truck_truck" depart="187.42" departLane="best" from="-191510466" to="128508563#0"/>
    <trip id="truck150" type="truck_truck" depart="188.68" departLane="best" from="197054866#4" to="788308777"/>
    <trip id="truck152" type="truck_truck" depart="191.19" departLane="best" from="425691399" to="-278920578"/>
    <trip id="truck153" type="truck_truck" depart="192.45" departLane="best" from="945530873" to="405495014#4"/>
    <trip id="truck154" type="truck_truck" depart="193.71" departLane="best" from="933518002#0" to="491421502#2"/>
    <trip id="truck155" type="truck_truck" depart="194.97" departLane="best" from="-944404759" to="1227666868"/>
    <trip id="truck156" type="truck_truck" depart="196.22" departLane="best" from="936913396#1" to="195270962"/>
    <trip id="truck157" type="truck_truck" depart="197.48" departLane="best" from="-431546930" to="369631338"/>
    <trip id="truck158" type="truck_truck" depart="198.74" departLane="best" departSpeed="max" from="454570250" to="230629152#11"/>
    <trip id="truck159" type="truck_truck" depart="200.00" departLane="best" from="424396207#0" to="38627953"/>
    <trip id="truck160" type="truck_truck" depart="201.25" departLane="best" from="128515117#1" to="448209708#1"/>
    <trip id="truck161" type="truck_truck" depart="202.51" departLane="best" departSpeed="max" from="1081163374#1" to="909387495#2"/>
    <trip id="truck162" type="truck_truck" depart="203.77" departLane="best" from="37916494#2" to="-454570252"/>
    <trip id="truck163" type="truck_truck" depart="205.03" departLane="best" from="462992753" to="431548666#1"/>
    <trip id="truck164" type="truck_truck" depart="206.29" departLane="best" from="230628800#2" to="-37916640"/>
    <trip id="truck165" type="truck_truck" depart="207.54" departLane="best" from="425925610#0" to="236120863#1"/>
    <trip id="truck166" type="truck_truck" depart="208.80" departLane="best" departSpeed="max" from="183462529" to="75316978"/>
    <trip id="truck167" type="truck_truck" depart="210.06" departLane="best" from="181593980#0" to="289936233#0"/>
    <trip id="truck168" type="truck_truck" depart="211.32" departLane="best" from="237048520#0" to="22999717"/>
    <trip id="truck169" type="truck_truck" depart="212.58" departLane="best" departSpeed="max" from="-431552169" to="330594516#1"/>
    <trip id="truck171" type="truck_truck" depart="215.09" departLane="best" from="8579217#1" to="425923723#5"/>
    <trip id="truck172" type="truck_truck" depart="216.35" departLane="best" departSpeed="max" from="172433906" to="424389513#3"/>
    <trip id="truck173" type="truck_truck" depart="217.61" departLane="best" from="1005029796#1" to="212723117#2"/>
    <trip id="truck174" type="truck_truck" depart="218.86" departLane="best" from="255838496#0" to="424630860#0"/>
    <trip id="truck175" type="truck_truck" depart="220.12" departLane="best" from="425850171#1" to="37916375#2"/>
    <trip id="truck176" type="truck_truck" depart="221.38" departLane="best" from="333172735#1" to="8579553#0"/>
    <trip id="truck177" type="truck_truck" depart="222.64" departLane="best" from="524255618" to="108358683#1"/>
    <trip id="truck178" type="truck_truck" depart="223.90" departLane="best" from="-425869965" to="38630159#0"/>
    <trip id="truck179" type="truck_truck" depart="225.15" departLane="best" from="424630860#3" to="237048438#1"/>
    <trip id="truck180" type="truck_truck" depart="226.41" departLane="best" from="577909640#1" to="935568390"/>
    <trip id="truck181" type="truck_truck" depart="227.67" departLane="best" from="425926581#2" to="134365461#3"/>
    <trip id="truck182" type="truck_truck" depart="228.93" departLane="best" from="128511288#1" to="37916467"/>
    <trip id="truck183" type="truck_truck" depart="230.19" departLane="best" from="72614035#1" to="-38508521"/>
    <trip id="truck184" type="truck_truck" depart="231.44" departLane="best" departSpeed="max" from="245629360" to="425926847#2"/>
    <trip id="truck185" type="truck_truck" depart="232.70" departLane="best" departSpeed="max" from="-944822705" to="435974906"/>
    <trip id="truck186" type="truck_truck" depart="233.96" departLane="best" from="37253814#1" to="16257487#0"/>
    <trip id="truck187" type="truck_truck" depart="235.22" departLane="best" from="425854165#0" to="1227666867#1"/>
    <trip id="truck188" type="truck_truck" depart="236.47" departLane="best" from="46892970#1" to="498875212"/>
    <trip id="truck189" type="truck_truck" depart="237.73" departLane="best" departSpeed="max" from="-431546440" to="34431215#1"/>
    <trip id="truck190" type="truck_truck" depart="238.99" departLane="best" from="-856557595" to="23013179#3"/>
    <trip id="truck191" type="truck_truck" depart="240.25" departLane="best" from="37916358#3" to="-30568316#0"/>
    <trip id="truck192" type="truck_truck" depart="241.51" departLane="best" departSpeed="max" from="128511300" to="75316978"/>
    <trip id="truck193" type="truck_truck" depart="242.76" departLane="best" departSpeed="max" from="289934634#0" to="565539538#3"/>
    <trip id="truck194" type="truck_truck" depart="244.02" departLane="best" from="425925638#2" to="961097965#2"/>
    <trip id="truck195" type="truck_truck" depart="245.28" departLane="best" from="856557595" to="425923721#0"/>
    <trip id="truck196" type="truck_truck" depart="246.54" departLane="best" from="447007235#0" to="38508509"/>
    <trip id="truck197" type="truck_truck" depart="247.79" departLane="best" departSpeed="max" from="647497031" to="424389513#3"/>
    <trip id="truck198" type="truck_truck" depart="249.05" departLane="best" departSpeed="max" from="8579181#0" to="46927928#2"/>
    <trip id="truck199" type="truck_truck" depart="250.31" departLane="best" departSpeed="max" from="333520065#0" to="183462544"/>
    <trip id="truck200" type="truck_truck" depart="251.57" departLane="best" departSpeed="max" from="128511298" to="425929198"/>
    <trip id="truck203" type="truck_truck" depart="255.34" departLane="best" from="134363702#0" to="231281389#1"/>
    <trip id="truck204" type="truck_truck" depart="256.60" departLane="best" from="37916494#7" to="8579414#1"/>
    <trip id="truck205" type="truck_truck" depart="257.86" departLane="best" from="-431548665" to="37916388#2"/>
    <trip id="truck206" type="truck_truck" depart="259.12" departLane="best" from="237861715#1" to="416453603"/>
    <trip id="truck207" type="truck_truck" depart="260.37" departLane="best" departSpeed="max" from="245629360" to="128515118#0"/>
    <trip id="truck208" type="truck_truck" depart="261.63" departLane="best" from="250047718" to="8579600"/>
    <trip id="truck209" type="truck_truck" depart="262.89" departLane="best" from="38709149#0" to="435973655"/>
    <trip id="truck210" type="truck_truck" depart="264.15" departLane="best" departSpeed="max" from="736245839#0" to="491421502#2"/>
    <trip id="truck211" type="truck_truck" depart="265.40" departLane="best" from="234827302#1" to="-1231704238#0"/>
    <trip id="truck212" type="truck_truck" depart="266.66" departLane="best" from="72916477#3" to="936824210#3"/>
    <trip id="truck213" type="truck_truck" depart="267.92" departLane="best" from="246708378" to="470252928#0"/>
    <trip id="truck215" type="truck_truck" depart="270.44" departLane="best" departSpeed="max" from="1191283730" to="134363700#0"/>
    <trip id="truck217" type="truck_truck" depart="272.95" departLane="best" from="211060856#0" to="431550229"/>
    <trip id="truck218" type="truck_truck" depart="274.21" departLane="best" from="237455933#0" to="1080789231#1"/>
    <trip id="truck219" type="truck_truck" depart="275.47" departLane="best" from="312280064" to="-736245839#0"/>
    <trip id="truck221" type="truck_truck" depart="277.98" departLane="best" from="-211060858" to="425934198#4"/>
    <trip id="truck222" type="truck_truck" depart="279.24" departLane="best" departSpeed="max" from="-454683135" to="37916369#5"/>
    <trip id="truck223" type="truck_truck" depart="280.50" departLane="best" from="342616608" to="252344059"/>
    <trip id="truck224" type="truck_truck" depart="281.76" departLane="best" departSpeed="max" from="1080789236" to="235497117#1"/>
    <trip id="truck225" type="truck_truck" depart="283.01" departLane="best" from="46892974#2" to="702319652#1"/>
    <trip id="truck227" type="truck_truck" depart="285.53" departLane="best" from="999982296" to="237169411"/>
    <trip id="truck228" type="truck_truck" depart="286.79" departLane="best" departSpeed="max" from="935573770#0" to="128511296"/>
    <trip id="truck229" type="truck_truck" depart="288.05" departLane="best" from="-16257487#2" to="-945631150"/>
    <trip id="truck230" type="truck_truck" depart="289.30" departLane="best" departSpeed="max" from="38627954#0" to="134362685#1"/>
    <trip id="truck232" type="truck_truck" depart="291.82" departLane="best" departSpeed="max" from="-75416395" to="425854163#1"/>
    <trip id="truck233" type="truck_truck" depart="293.08" departLane="best" from="577923696#1" to="944828263"/>
    <trip id="truck234" type="truck_truck" depart="294.33" departLane="best" departSpeed="max" from="-431546514" to="16257487#2"/>
    <trip id="truck237" type="truck_truck" depart="298.11" departLane="best" from="51835049#1" to="-38709150"/>
    <trip id="truck238" type="truck_truck" depart="299.37" departLane="best" from="426247930#0" to="425926846#1"/>
    <trip id="truck240" type="truck_truck" depart="301.88" departLane="best" departSpeed="max" from="72614049#0" to="-425838710#0"/>
    <trip id="truck241" type="truck_truck" depart="303.14" departLane="best" departSpeed="max" from="-431550231" to="961097958#1"/>
    <trip id="truck242" type="truck_truck" depart="304.40" departLane="best" departSpeed="max" from="499334585" to="237048502#5"/>
    <trip id="truck243" type="truck_truck" depart="305.66" departLane="best" from="252790570#7" to="-251628553"/>
    <trip id="truck244" type="truck_truck" depart="306.91" departLane="best" departSpeed="max" from="37916341#0" to="237048497#0"/>
    <trip id="truck245" type="truck_truck" depart="308.17" departLane="best" departSpeed="max" from="72614035#0" to="679196742#0"/>
    <trip id="truck246" type="truck_truck" depart="309.43" departLane="best" departSpeed="max" from="-431546440" to="944331977#2"/>
    <trip id="truck247" type="truck_truck" depart="310.69" departLane="best" departSpeed="max" from="424632407" to="702319643#0"/>
    <trip id="truck248" type="truck_truck" depart="311.94" departLane="best" departSpeed="max" from="431548666#0" to="369632800"/>
    <trip id="truck249" type="truck_truck" depart="313.20" departLane="best" from="-454670894" to="944828263"/>
    <trip id="truck250" type="truck_truck" depart="314.46" departLane="best" from="25953774#0" to="456287379"/>
    <trip id="truck251" type="truck_truck" depart="315.72" departLane="best" from="-134362567#0" to="75479791"/>
    <trip id="truck252" type="truck_truck" depart="316.98" departLane="best" from="647497032" to="-425923716#1"/>
    <trip id="truck253" type="truck_truck" depart="318.23" departLane="best" departSpeed="max" from="8103468#0" to="153242233"/>
    <trip id="truck254" type="truck_truck" depart="319.49" departLane="best" departSpeed="max" from="310454393" to="425923712"/>
    <trip id="truck255" type="truck_truck" depart="320.75" departLane="best" departSpeed="max" from="231341699" to="-17446828"/>
    <trip id="truck256" type="truck_truck" depart="322.01" departLane="best" departSpeed="max" from="72614049#0" to="1231761026#0"/>
    <trip id="truck258" type="truck_truck" depart="324.52" departLane="best" from="430125563" to="211060855#2"/>
    <trip id="truck259" type="truck_truck" depart="325.78" departLane="best" from="128508563#2" to="936113851"/>
    <trip id="truck260" type="truck_truck" depart="327.04" departLane="best" from="425923716#0" to="454570253"/>
    <trip id="truck261" type="truck_truck" depart="328.30" departLane="best" from="72916473#0" to="48661214"/>
    <trip id="truck262" type="truck_truck" depart="329.55" departLane="best" departSpeed="max" from="37253812#0" to="543100867"/>
    <trip id="truck263" type="truck_truck" depart="330.81" departLane="best" from="-425934927" to="134364076#1"/>