<?xml version="1.0" encoding="UTF-8"?>

<!-- generated on 2024-04-23 20:22:52.829661 by osmWebWizard.py v1_19_0+0000-baa66a0f364
<configuration>
    <net-file value="F:\SUMO\OptimalEmission-SUMO-ReinforcementLearning\2024-04-23-20-22-32\osm.net.xml.gz"/>
    <output-trip-file value="F:\SUMO\OptimalEmission-SUMO-ReinforcementLearning\2024-04-23-20-22-32\osm.bus.trips.xml"/>
    <route-file value="F:\SUMO\OptimalEmission-SUMO-ReinforcementLearning\2024-04-23-20-22-32\osm.bus.rou.xml"/>
    <prefix value="bus"/>
    <trip-attributes value="departLane=&quot;best&quot;"/>
    <fringe-start-attributes value="departSpeed=&quot;max&quot;"/>
    <vehicle-class value="bus"/>
    <fringe-factor value="5"/>
    <vclass value="bus"/>
    <via-edge-types value="highway.motorway,highway.motorway_link,highway.trunk_link,highway.primary_link,highway.secondary_link,highway.tertiary_link"/>
    <min-distance value="600.0"/>
    <min-distance.fringe value="10.0"/>
    <remove-loops value="True"/>
    <validate value="True"/>
    <insertion-density value="4.0"/>
</configuration>
-->

<!-- generated on 2024-04-23 20:22:52 by Eclipse SUMO duarouter Version 1.19.0
<configuration xmlns:xsi="http://www.w3.org/2001/XMLSchema-instance" xsi:noNamespaceSchemaLocation="http://sumo.dlr.de/xsd/duarouterConfiguration.xsd">

    <input>
        <net-file value="F:\SUMO\OptimalEmission-SUMO-ReinforcementLearning\2024-04-23-20-22-32\osm.net.xml.gz"/>
        <route-files value="F:\SUMO\OptimalEmission-SUMO-ReinforcementLearning\2024-04-23-20-22-32\osm.bus.trips.xml"/>
    </input>

    <output>
        <output-file value="F:\SUMO\OptimalEmission-SUMO-ReinforcementLearning\2024-04-23-20-22-32\osm.bus.trips.xml.tmp"/>
        <alternatives-output value="NUL"/>
        <write-trips value="true"/>
    </output>

    <processing>
        <remove-loops value="true"/>
    </processing>

    <time>
        <begin value="0.0"/>
        <end value="3600.0"/>
    </time>

    <report>
        <no-warnings value="true"/>
        <ignore-errors value="true"/>
        <no-step-log value="true"/>
    </report>

</configuration>
-->

<routes xmlns:xsi="http://www.w3.org/2001/XMLSchema-instance" xsi:noNamespaceSchemaLocation="http://sumo.dlr.de/xsd/routes_file.xsd">
    <vType id="bus_bus" vClass="bus"/>
    <trip id="bus0" type="bus_bus" depart="0.00" departLane="best" from="424630824" to="-142906165"/>
    <trip id="bus1" type="bus_bus" depart="2.52" departLane="best" departSpeed="max" from="454570250" to="431548662"/>
    <trip id="bus2" type="bus_bus" depart="5.04" departLane="best" from="8375715#1" to="-424630814#1"/>
    <trip id="bus3" type="bus_bus" depart="7.56" departLane="best" from="1005029796#1" to="37916549"/>
    <trip id="bus4" type="bus_bus" depart="10.08" departLane="best" from="17446828" to="1243268951#0"/>
    <trip id="bus5" type="bus_bus" depart="12.60" departLane="best" from="425456021#1" to="38738769#1"/>
    <trip id="bus6" type="bus_bus" depart="15.12" departLane="best" from="565519143" to="-1231704238#2"/>
    <trip id="bus7" type="bus_bus" depart="17.64" departLane="best" from="542137841#0" to="431552169"/>
    <trip id="bus8" type="bus_bus" depart="20.16" departLane="best" from="197054866#0" to="-933600356"/>
    <trip id="bus9" type="bus_bus" depart="22.68" departLane="best" from="425691907" to="-425925625"/>
    <trip id="bus10" type="bus_bus" depart="25.20" departLane="best" from="237048499#5" to="425691410"/>
    <trip id="bus11" type="bus_bus" depart="27.72" departLane="best" from="542427434#2" to="454592878#0"/>
    <trip id="bus12" type="bus_bus" depart="30.24" departLane="best" departSpeed="max" from="589515206#0" to="425854162"/>
    <trip id="bus14" type="bus_bus" depart="35.28" departLane="best" departSpeed="max" from="428728758#0" to="-250255250#0"/>
    <trip id="bus15" type="bus_bus" depart="37.80" departLane="best" from="1080789231#4-AddedOffRampEdge" to="211060855#2"/>
    <trip id="bus17" type="bus_bus" depart="42.84" departLane="best" departSpeed="max" from="-425927626" to="186371501"/>
    <trip id="bus18" type="bus_bus" depart="45.36" departLane="best" from="424630813" to="237815998"/>
    <trip id="bus19" type="bus_bus" depart="47.88" departLane="best" from="230597451#0" to="-128508563#2"/>
    <trip id="bus20" type="bus_bus" depart="50.40" departLane="best" from="128515109#2" to="933595466#1"/>
    <trip id="bus21" type="bus_bus" depart="52.92" departLane="best" from="16975107" to="425692611"/>
    <trip id="bus22" type="bus_bus" depart="55.44" departLane="best" departSpeed="max" from="-682460399" to="454592876"/>
    <trip id="bus23" type="bus_bus" depart="57.96" departLane="best" departSpeed="max" from="-550481704#3" to="248758079"/>
    <trip id="bus24" type="bus_bus" depart="60.48" departLane="best" from="961097965#1" to="425926847#2"/>
    <trip id="bus26" type="bus_bus" depart="65.52" departLane="best" departSpeed="max" from="1080789236" to="936441864"/>
    <trip id="bus27" type="bus_bus" depart="68.04" departLane="best" departSpeed="max" from="134365461#4" to="935537752#4"/>
    <trip id="bus28" type="bus_bus" depart="70.56" departLane="best" from="425691429#2" to="255838496#0"/>
    <trip id="bus29" type="bus_bus" depart="73.09" departLane="best" from="8579726" to="374915865"/>
    <trip id="bus30" type="bus_bus" depart="75.61" departLane="best" departSpeed="max" from="128511300" to="142906166#3"/>
    <trip id="bus31" type="bus_bus" depart="78.13" departLane="best" from="37916642#0" to="168667915#1"/>
    <trip id="bus32" type="bus_bus" depart="80.65" departLane="best" departSpeed="max" from="38630633" to="8579217#1"/>
    <trip id="bus33" type="bus_bus" depart="83.17" departLane="best" from="237048438#0" to="128515110#1"/>
    <trip id="bus34" type="bus_bus" depart="85.69" departLane="best" from="981327956#1" to="37916642#2"/>
    <trip id="bus35" type="bus_bus" depart="88.21" departLane="best" departSpeed="max" from="-425691410" to="251629004"/>
    <trip id="bus38" type="bus_bus" depart="95.77" departLane="best" from="978208527#2" to="38630159#1"/>
    <trip id="bus39" type="bus_bus" depart="98.29" departLane="best" from="944404758#1" to="780219127#1"/>
    <trip id="bus40" type="bus_bus" depart="100.81" departLane="best" from="128508563#1" to="448209710#0"/>
    <trip id="bus41" type="bus_bus" depart="103.33" departLane="best" from="425926581#0" to="38631699#3"/>
    <trip id="bus42" type="bus_bus" depart="105.85" departLane="best" from="128515109#1" to="425926847#2"/>
    <trip id="bus44" type="bus_bus" depart="110.89" departLane="best" from="788308775#1" to="16973673"/>
    <trip id="bus45" type="bus_bus" depart="113.41" departLane="best" from="369630801#0" to="1031640102#0"/>
    <trip id="bus46" type="bus_bus" depart="115.93" departLane="best" from="8579570" to="801981836#2"/>
    <trip id="bus48" type="bus_bus" depart="120.97" departLane="best" from="424389513#1" to="-8579414#0"/>
    <trip id="bus50" type="bus_bus" depart="126.01" departLane="best" from="487857215" to="38630330#1"/>
    <trip id="bus51" type="bus_bus" depart="128.53" departLane="best" from="-1005029796#1" to="230628807#4"/>
    <trip id="bus52" type="bus_bus" depart="131.05" departLane="best" from="79667605#1" to="699864648"/>
    <trip id="bus54" type="bus_bus" depart="136.09" departLane="best" from="79666136" to="935899209"/>
    <trip id="bus55" type="bus_bus" depart="138.61" departLane="best" departSpeed="max" from="-424630827#1" to="37916452#1"/>
    <trip id="bus56" type="bus_bus" depart="141.13" departLane="best" from="-37916359" to="48651841#0"/>
    <trip id="bus57" type="bus_bus" depart="143.65" departLane="best" from="470252928#2" to="-519691384#0"/>
    <trip id="bus58" type="bus_bus" depart="146.17" departLane="best" from="312277540#0" to="918665416#0"/>
    <trip id="bus59" type="bus_bus" depart="148.69" departLane="best" departSpeed="max" from="128511300" to="804468956"/>
    <trip id="bus60" type="bus_bus" depart="151.21" departLane="best" from="244936668" to="128511286#0"/>
    <trip id="bus61" type="bus_bus" depart="153.73" departLane="best" from="37916411" to="454592878#0"/>
    <trip id="bus63" type="bus_bus" depart="158.77" departLane="best" from="977375158" to="929414408"/>
    <trip id="bus64" type="bus_bus" depart="161.29" departLane="best" from="252790570#7" to="38508498"/>
    <trip id="bus65" type="bus_bus" depart="163.81" departLane="best" departSpeed="max" from="-431548666#1" to="128519867#0"/>
    <trip id="bus66" type="bus_bus" depart="166.33" departLane="best" from="196799729#1" to="424630827#1"/>
    <trip id="bus67" type="bus_bus" depart="168.85" departLane="best" from="1081163374#0" to="128515112"/>
    <trip id="bus69" type="bus_bus" depart="173.89" departLane="best" departSpeed="max" from="1080789236" to="8579600"/>
    <trip id="bus70" type="bus_bus" depart="176.41" departLane="best" departSpeed="max" from="736245839#0" to="-37916369#1"/>
    <trip id="bus71" type="bus_bus" depart="178.93" departLane="best" departSpeed="max" from="1191283730" to="430127947"/>
    <trip id="bus72" type="bus_bus" depart="181.45" departLane="best" departSpeed="max" from="-945192152" to="577923696#1"/>
    <trip id="bus74" type="bus_bus" depart="186.49" departLane="best" from="30568316#1" to="51835047"/>
    <trip id="bus75" type="bus_bus" depart="189.01" departLane="best" from="-550481704#1" to="1171309060#1"/>
    <trip id="bus76" type="bus_bus" depart="191.53" departLane="best" departSpeed="max" from="-425923730#1" to="330594516#1"/>
    <trip id="bus77" type="bus_bus" depart="194.05" departLane="best" from="244936670" to="37916343#4"/>
    <trip id="bus78" type="bus_bus" depart="196.57" departLane="best" from="447117762#3" to="430128415#1"/>
    <trip id="bus79" type="bus_bus" depart="199.09" departLane="best" from="945631150" to="-425925652#1"/>
    <trip id="bus81" type="bus_bus" depart="204.13" departLane="best" from="788308776#0" to="14408299"/>
    <trip id="bus83" type="bus_bus" depart="209.17" departLane="best" from="244936637#2" to="191510467"/>
    <trip id="bus84" type="bus_bus" depart="211.69" departLane="best" from="128508555#1" to="904101257"/>
    <trip id="bus85" type="bus_bus" depart="214.21" departLane="best" from="25619255#1" to="780219130"/>
    <trip id="bus86" type="bus_bus" depart="216.73" departLane="best" from="34436963#1" to="-277794712#0"/>
    <trip id="bus87" type="bus_bus" depart="219.26" departLane="best" from="994969688" to="702319654#0"/>
    <trip id="bus89" type="bus_bus" depart="224.30" departLane="best" from="705005536#3" to="-944822703"/>
    <trip id="bus90" type="bus_bus" depart="226.82" departLane="best" departSpeed="max" from="333520475#0" to="128511288#1"/>
    <trip id="bus92" type="bus_bus" depart="231.86" departLane="best" from="230628807#4" to="961097961#0"/>
    <trip id="bus93" type="bus_bus" depart="234.38" departLane="best" departSpeed="max" from="128511300" to="51835035#3"/>
    <trip id="bus95" type="bus_bus" depart="239.42" departLane="best" from="936372777#1" to="978208527#0"/>
    <trip id="bus96" type="bus_bus" depart="241.94" departLane="best" from="37916524#2" to="448209708#1"/>
    <trip id="bus97" type="bus_bus" depart="244.46" departLane="best" from="48651855#0" to="212353005#2"/>
    <trip id="bus98" type="bus_bus" depart="246.98" departLane="best" from="943001486" to="424630789"/>
    <trip id="bus99" type="bus_bus" depart="249.50" departLane="best" from="-37916435" to="46892974#1"/>
    <trip id="bus101" type="bus_bus" depart="254.54" departLane="best" from="369632800" to="75316979#1"/>
    <trip id="bus102" type="bus_bus" depart="257.06" departLane="best" departSpeed="max" from="-498875212" to="943943780"/>
    <trip id="bus104" type="bus_bus" depart="262.10" departLane="best" from="38709148#0" to="430129437#1"/>
    <trip id="bus105" type="bus_bus" depart="264.62" departLane="best" from="1127803936" to="-467061960"/>
    <trip id="bus106" type="bus_bus" depart="267.14" departLane="best" from="8307077#0" to="142906166#3"/>
    <trip id="bus107" type="bus_bus" depart="269.66" departLane="best" from="38709146" to="425854842"/>
    <trip id="bus108" type="bus_bus" depart="272.18" departLane="best" from="237861718" to="424630813"/>
    <trip id="bus109" type="bus_bus" depart="274.70" departLane="best" departSpeed="max" from="37916343#0" to="933408125"/>
    <trip id="bus110" type="bus_bus" depart="277.22" departLane="best" departSpeed="max" from="-933600358" to="447117762#3"/>
    <trip id="bus111" type="bus_bus" depart="279.74" departLane="best" from="1231704238#0" to="255838496#1"/>
    <trip id="bus112" type="bus_bus" depart="282.26" departLane="best" from="425923723#0" to="212723117#3"/>
    <trip id="bus113" type="bus_bus" depart="284.78" departLane="best" from="-37916388#2" to="374915865"/>
    <trip id="bus114" type="bus_bus" depart="287.30" departLane="best" from="986028741#1" to="978208527#2"/>
    <trip id="bus115" type="bus_bus" depart="289.82" departLane="best" from="-37916461#0" to="-128511288#0"/>
    <trip id="bus116" type="bus_bus" depart="292.34" departLane="best" departSpeed="max" from="128511300" to="933050892"/>
    <trip id="bus117" type="bus_bus" depart="294.86" departLane="best" departSpeed="max" from="801981836#0" to="810899017#1"/>
    <trip id="bus118" type="bus_bus" depart="297.38" departLane="best" departSpeed="max" from="647497031" to="-435973649"/>
    <trip id="bus119" type="bus_bus" depart="299.90" departLane="best" from="424389522" to="961097965#0"/>
    <trip id="bus120" type="bus_bus" depart="302.42" departLane="best" from="425691426" to="-128508553"/>
    <trip id="bus121" type="bus_bus" depart="304.94" departLane="best" from="16976549" to="212723117#1"/>
    <trip id="bus122" type="bus_bus" depart="307.46" departLane="best" from="425850168#1" to="933608711"/>
    <trip id="bus123" type="bus_bus" depart="309.98" departLane="best" departSpeed="max" from="-431550233" to="-447927890#1"/>
    <trip id="bus124" type="bus_bus" depart="312.50" departLane="best" departSpeed="max" from="-430127810" to="409861831#0"/>
    <trip id="bus125" type="bus_bus" depart="315.02" departLane="best" from="128515119" to="425691414#0"/>
    <trip id="bus126" type="bus_bus" depart="317.54" departLane="best" from="34431215#1" to="8579573"/>
    <trip id="bus128" type="bus_bus" depart="322.58" departLane="best" from="244936670" to="183489045#3"/>
    <trip id="bus130" type="bus_bus" depart="327.62" departLane="best" from="424630819#0" to="167147487"/>
    <trip id="bus131" type="bus_bus" depart="330.14" departLane="best" from="245958756#1" to="-128508558"/>
    <trip id="bus134" type="bus_bus" depart="337.70" departLane="best" departSpeed="max" from="647497031" to="424630809#4"/>
    <trip id="bus135" type="bus_bus" depart="340.22" departLane="best" departSpeed="max" from="-467063527" to="491421502#2"/>
    <trip id="bus136" type="bus_bus" depart="342.74" departLane="best" from="16649011#1" to="8579414#1"/>
    <trip id="bus138" type="bus_bus" depart="347.78" departLane="best" departSpeed="max" from="8579181#0" to="128508563#4"/>
    <trip id="bus139" type="bus_bus" depart="350.30" departLane="best" from="128508555#0" to="-430124768#0"/>
    <trip id="bus140" type="bus_bus" depart="352.82" departLane="best" from="237048499#4" to="425869966"/>
    <trip id="bus142" type="bus_bus" depart="357.86" departLane="best" from="565539527#2" to="8307077#1"/>
    <trip id="bus143" type="bus_bus" depart="360.38" departLane="best" departSpeed="max" from="-16257487#4" to="454693652"/>
    <trip id="bus144" type="bus_bus" depart="362.91" departLane="best" from="183489044" to="929414407#0"/>
    <trip id="bus145" type="bus_bus" depart="365.43" departLane="best" from="524255618" to="409861330#1"/>
    <trip id="bus146" type="bus_bus" depart="367.95" departLane="best" from="565539527#2" to="172433904#1"/>
    <trip id="bus147" type="bus_bus" depart="370.47" departLane="best" from="49436732#1" to="-431548664#0"/>
    <trip id="bus148" type="bus_bus" depart="372.99" departLane="best" from="1024362616#1" to="603688830#1"/>
    <trip id="bus150" type="bus_bus" depart="378.03" departLane="best" from="183462549" to="78407131#5"/>
    <trip id="bus151" type="bus_bus" depart="380.55" departLane="best" departSpeed="max" from="942638906" to="195270962"/>
    <trip id="bus152" type="bus_bus" depart="383.07" departLane="best" from="945510041" to="38631699#2"/>
    <trip id="bus153" type="bus_bus" depart="385.59" departLane="best" from="933050893" to="-447927890#1"/>
    <trip id="bus154" type="bus_bus" depart="388.11" departLane="best" from="944331977#2" to="1031640102#0"/>
    <trip id="bus155" type="bus_bus" depart="390.63" departLane="best" from="-936824212" to="171849130#1"/>
    <trip id="bus156" type="bus_bus" depart="393.15" departLane="best" departSpeed="max" from="-430127947" to="342616608"/>
    <trip id="bus157" type="bus_bus" depart="395.67" departLane="best" from="447117762#1" to="230395575#0"/>
    <trip id="bus160" type="bus_bus" depart="403.23" departLane="best" from="128508562" to="435974907"/>
    <trip id="bus161" type="bus_bus" depart="405.75" departLane="best" departSpeed="max" from="-1081163374#1" to="907951053"/>
    <trip id="bus162" type="bus_bus" depart="408.27" departLane="best" from="-37916388#2" to="448209709#1"/>
    <trip id="bus163" type="bus_bus" depart="410.79" departLane="best" from="454680853" to="430128411"/>
    <trip id="bus164" type="bus_bus" depart="413.31" departLane="best" from="23013179#4" to="-37916359"/>
    <trip id="bus165" type="bus_bus" depart="415.83" departLane="best" from="425850171#0" to="231242275#1"/>
    <trip id="bus166" type="bus_bus" depart="418.35" departLane="best" departSpeed="max" from="172433906" to="736245839#1"/>
    <trip id="bus168" type="bus_bus" depart="423.39" departLane="best" from="167147487" to="278916128#1"/>
    <trip id="bus170" type="bus_bus" depart="428.43" departLane="best" from="933408125" to="431548662"/>
    <trip id="bus171" type="bus_bus" depart="430.95" departLane="best" departSpeed="max" from="8579210#0" to="425849974#0"/>
    <trip id="bus172" type="bus_bus" depart="433.47" departLane="best" from="-1005029796#1" to="-199918917#2"/>
    <trip id="bus173" type="bus_bus" depart="435.99" departLane="best" from="250047718" to="424630807#0"/>
    <trip id="bus174" type="bus_bus" depart="438.51" departLane="best" from="425691429#0" to="37916341#2"/>
    <trip id="bus175" type="bus_bus" depart="441.03" departLane="best" from="255845156#4" to="128511288#1"/>
    <trip id="bus176" type="bus_bus" depart="443.55" departLane="best" departSpeed="max" from="310454393" to="8579495#1"/>
    <trip id="bus178" type="bus_bus" depart="448.59" departLane="best" from="-424630817" to="37954250#1"/>
    <trip id="bus179" type="bus_bus" depart="451.11" departLane="best" from="424630809#0" to="234827302#1"/>
    <trip id="bus180" type="bus_bus" depart="453.63" departLane="best" departSpeed="max" from="575154549" to="46927933#1"/>
    <trip id="bus181" type="bus_bus" depart="456.15" departLane="best" from="425923723#4" to="128519867#0"/>
    <trip id="bus182" type="bus_bus" depart="458.67" departLane="best" departSpeed="max" from="-918665416#1" to="-142906165"/>
    <trip id="bus183" type="bus_bus" depart="461.19" departLane="best" from="1274293171" to="37916367#3"/>
    <trip id="bus184" type="bus_bus" depart="463.71" departLane="best" from="710195117#0" to="-37916388#0"/>
    <trip id="bus185" type="bus_bus" depart="466.23" departLane="best" from="237455906" to="425925621"/>
    <trip id="bus186" type="bus_bus" depart="468.75" departLane="best" from="-867254103#0" to="431552168#1"/>
    <trip id="bus188" type="bus_bus" depart="473.79" departLane="best" from="425691444" to="1227666867#1"/>
    <trip id="bus189" type="bus_bus" depart="476.31" departLane="best" departSpeed="max" from="467061960" to="48802847#1"/>
    <trip id="bus190" type="bus_bus" depart="478.83" departLane="best" departSpeed="max" from="-430127810" to="312277540#1"/>
    <trip id="bus191" type="bus_bus" depart="481.35" departLane="best" from="234827311#1" to="942243506#1"/>
    <trip id="bus192" type="bus_bus" depart="483.87" departLane="best" from="-37909866#1" to="-277794712#0"/>
    <trip id="bus193" type="bus_bus" depart="486.39" departLane="best" from="278923388#0" to="560266874#1"/>
    <trip id="bus194" type="bus_bus" depart="488.91" departLane="best" departSpeed="max" from="425923715#0" to="961097965#2"/>
    <trip id="bus195" type="bus_bus" depart="491.43" departLane="best" from="38709148#1" to="936359413"/>
    <trip id="bus196" type="bus_bus" depart="493.95" departLane="best" from="8375715#0" to="425838713#0"/>
    <trip id="bus198" type="bus_bus" depart="498.99" departLane="best" from="621526225#1" to="405495014#0"/>
    <trip id="bus199" type="bus_bus" depart="501.51" departLane="best" from="8579142" to="46892383#1"/>
    <trip id="bus200" type="bus_bus" depart="504.03" departLane="best" departSpeed="max" from="310454393" to="16257487#4"/>
    <trip id="bus201" type="bus_bus" depart="506.56" departLane="best" from="128508552" to="425926844#0"/>
    <trip id="bus202" type="bus_bus" depart="509.08" departLane="best" from="424586851#0" to="183489030#2"/>
    <trip id="bus203" type="bus_bus" depart="511.60" departLane="best" departSpeed="max" from="-37916533#2" to="199121003#1"/>
    <trip id="bus204" type="bus_bus" depart="514.12" departLane="best" from="128515118#0" to="230623952#2"/>
    <trip id="bus205" type="bus_bus" depart="516.64" departLane="best" from="37916421#1" to="-72916490"/>
    <trip id="bus206" type="bus_bus" depart="519.16" departLane="best" departSpeed="max" from="108358684" to="431550233"/>
    <trip id="bus207" type="bus_bus" depart="521.68" departLane="best" from="429353539#0" to="369631338"/>
    <trip id="bus208" type="bus_bus" depart="524.20" departLane="best" from="237048500#1" to="38738611"/>
    <trip id="bus209" type="bus_bus" depart="526.72" departLane="best" from="237470808#2" to="128508559#0"/>
    <trip id="bus210" type="bus_bus" depart="529.24" departLane="best" from="241318609" to="8579570"/>
    <trip id="bus211" type="bus_bus" depart="531.76" departLane="best" from="38630334#1-AddedOnRampEdge" to="431550234#1"/>
    <trip id="bus212" type="bus_bus" depart="534.28" departLane="best" from="72916477#1" to="48661216#1"/>
    <trip id="bus213" type="bus_bus" depart="536.80" departLane="best" from="211556997#0" to="46932090"/>
    <trip id="bus214" type="bus_bus" depart="539.32" departLane="best" departSpeed="max" from="72614035#0" to="-936506429"/>
    <trip id="bus215" type="bus_bus" depart="541.84" departLane="best" from="237861717" to="46892974#0"/>
    <trip id="bus216" type="bus_bus" depart="544.36" departLane="best" from="37916464#0" to="425691410"/>
    <trip id="bus217" type="bus_bus" depart="546.88" departLane="best" from="1005082920#0" to="128515110#2"/>
    <trip id="bus219" type="bus_bus" depart="551.92" departLane="best" departSpeed="max" from="186496569#0" to="431548664#1"/>
    <trip id="bus220" type="bus_bus" depart="554.44" departLane="best" from="237048497#1" to="944404759"/>
    <trip id="bus221" type="bus_bus" depart="556.96" departLane="best" from="289936233#0" to="491421502#2"/>
    <trip id="bus222" type="bus_bus" depart="559.48" departLane="best" from="424419378#5" to="16257487#2"/>
    <trip id="bus223" type="bus_bus" depart="562.00" departLane="best" from="235497097#2" to="424389523#4"/>
    <trip id="bus224" type="bus_bus" depart="564.52" departLane="best" departSpeed="max" from="-431550234#1" to="37909863#1"/>
    <trip id="bus226" type="bus_bus" depart="569.56" departLane="best" from="46927928#1" to="248758079"/>
    <trip id="bus227" type="bus_bus" depart="572.08" departLane="best" departSpeed="max" from="128508558" to="-38508521"/>
    <trip id="bus229" type="bus_bus" depart="577.12" departLane="best" from="999982296" to="237048446#4"/>
    <trip id="bus230" type="bus_bus" depart="579.64" departLane="best" from="425458231" to="51835034#1"/>
    <trip id="bus231" type="bus_bus" depart="582.16" departLane="best" from="425691399" to="470252928#0"/>
    <trip id="bus232" type="bus_bus" depart="584.68" departLane="best" from="935568388" to="1249187654#0"/>
    <trip id="bus233" type="bus_bus" depart="587.20" departLane="best" from="-134363381" to="-8579414#0"/>
    <trip id="bus234" type="bus_bus" depart="589.72" departLane="best" departSpeed="max" from="-431548669" to="430127947"/>
    <trip id="bus235" type="bus_bus" depart="592.24" departLane="best" from="37918173#1" to="128515109#3"/>
    <trip id="bus236" type="bus_bus" depart="594.76" departLane="best" from="-577930659#1" to="425691443"/>
    <trip id="bus237" type="bus_bus" depart="597.28" departLane="best" from="-425457913#0" to="-444667678"/>
    <trip id="bus238" type="bus_bus" depart="599.80" departLane="best" departSpeed="max" from="575154549" to="944826127#0"/>
    <trip id="bus239" type="bus_bus" depart="602.32" departLane="best" departSpeed="max" from="-430127947" to="-142906165"/>
    <trip id="bus240" type="bus_bus" depart="604.84" departLane="best" from="16976173" to="431548662"/>
    <trip id="bus241" type="bus_bus" depart="607.36" departLane="best" from="936379730#1" to="255845156#1"/>
    <trip id="bus242" type="bus_bus" depart="609.88" departLane="best" from="425929196#1" to="491421503#1"/>
    <trip id="bus243" type="bus_bus" depart="612.40" departLane="best" from="710195117#1" to="425458232"/>
    <trip id="bus244" type="bus_bus" depart="614.92" departLane="best" departSpeed="max" from="-431548666#1" to="946541960#1"/>
    <trip id="bus245" type="bus_bus" depart="617.44" departLane="best" from="48802849" to="237048439"/>
    <trip id="bus246" type="bus_bus" depart="619.96" departLane="best" from="37253813#0" to="236120863#1"/>
    <trip id="bus247" type="bus_bus" depart="622.48" departLane="best" departSpeed="max" from="-430124768#1" to="943943780"/>
    <trip id="bus248" type="bus_bus" depart="625.00" departLane="best" from="429715969#0" to="34436959"/>
    <trip id="bus249" type="bus_bus" depart="627.52" departLane="best" from="454570243#0" to="944828263"/>
    <trip id="bus250" type="bus_bus" depart="630.04" departLane="best" from="128515114" to="565914241#2"/>
    <trip id="bus251" type="bus_bus" depart="632.56" departLane="best" from="252274190" to="454601627"/>
    <trip id="bus252" type="bus_bus" depart="635.08" departLane="best" from="128515109#6" to="75316978"/>
    <trip id="bus253" type="bus_bus" depart="637.60" departLane="best" from="621526225#1" to="424630814#0"/>
    <trip id="bus254" type="bus_bus" depart="640.12" departLane="best" from="801981836#2" to="141294961#3"/>
    <trip id="bus255" type="bus_bus" depart="642.64" departLane="best" from="230628807#4" to="-172728794"/>
    <trip id="bus256" type="bus_bus" depart="645.16" departLane="best" departSpeed="max" from="-944822705" to="543100867"/>
    <trip id="bus257" type="bus_bus" depart="647.68" departLane="best" from="197054866#1" to="-810899019"/>
    <trip id="bus259" type="bus_bus" depart="652.73" departLane="best" from="128508551" to="936107422"/>
    <trip id="bus260" type="bus_bus" depart="655.25" departLane="best" departSpeed="max" from="-424630827#1" to="448209709#1"/>
    <trip id="bus261" type="bus_bus" depart="657.77" departLane="best" from="34431215#1" to="476994770"/>
    <trip id="bus263" type="bus_bus" depart="662.81" departLane="best" departSpeed="max" from="-425692611" to="128515117#0-AddedOffRampEdge"/>
    <trip id="bus264" type="bus_bus" depart="665.33" departLane="best" from="425929193" to="22999651"/>
    <trip id="bus265" type="bus_bus" depart="667.85" departLane="best" departSpeed="max" from="38630328#0" to="-37916358#3"/>
    <trip id="bus266" type="bus_bus" depart="670.37" departLane="best" from="37916358#2" to="726032525#0"/>
    <trip id="bus268" type="bus_bus" depart="675.41" departLane="best" from="8579210#2" to="-462992753"/>
    <trip id="bus269" type="bus_bus" depart="677.93" departLane="best" from="37916372#1" to="48651850"/>
    <trip id="bus270" type="bus_bus" depart="680.45" departLane="best" departSpeed="max" from="-804468956" to="128511299"/>
    <trip id="bus271" type="bus_bus" depart="682.97" departLane="best" departSpeed="max" from="333520065#0" to="454561009#1"/>
    <trip id="bus272" type="bus_bus" depart="685.49" departLane="best" from="945192153#1" to="38627952"/>
    <trip id="bus273" type="bus_bus" depart="688.01" departLane="best" from="134362567#1" to="-425930849#1"/>
    <trip id="bus274" type="bus_bus" depart="690.53" departLane="best" from="858047600" to="128838918"/>
    <trip id="bus275" type="bus_bus" depart="693.05" departLane="best" from="-75316979#0" to="128508563#4"/>
    <trip id="bus276" type="bus_bus" depart="695.57" departLane="best" from="-37916369#4" to="183489030#1"/>
    <trip id="bus277" type="bus_bus" depart="698.09" departLane="best" from="944843845" to="409861831#0"/>
    <trip id="bus278" type="bus_bus" depart="700.61" departLane="best" from="780170816" to="457093355#0"/>
    <trip id="bus281" type="bus_bus" depart="708.17" departLane="best" departSpeed="max" from="-804468956" to="-277794712#0"/>
    <trip id="bus282" type="bus_bus" depart="710.69" departLane="best" from="933518003" to="37916372#0"/>
    <trip id="bus283" type="bus_bus" depart="713.21" departLane="best" from="577909639#0" to="25953773#4"/>
    <trip id="bus284" type="bus_bus" depart="715.73" departLane="best" from="-37916466" to="425925610#1"/>
    <trip id="bus285" type="bus_bus" depart="718.25" departLane="best" departSpeed="max" from="-330594516#1" to="-8579210#0"/>
    <trip id="bus286" type="bus_bus" depart="720.77" departLane="best" from="37916661#3" to="229739161#1"/>
    <trip id="bus288" type="bus_bus" depart="725.81" departLane="best" departSpeed="max" from="46932095" to="425691429#0"/>