<?xml version="1.0" encoding="UTF-8"?>

<!-- generated on 2024-04-23 20:23:04.186813 by osmWebWizard.py v1_19_0+0000-baa66a0f364
<configuration>
    <net-file value="F:\SUMO\OptimalEmission-SUMO-ReinforcementLearning\2024-04-23-20-22-32\osm.net.xml.gz"/>
    <output-trip-file value="F:\SUMO\OptimalEmission-SUMO-ReinforcementLearning\2024-04-23-20-22-32\osm.passenger.trips.xml"/>
    <route-file value="F:\SUMO\OptimalEmission-SUMO-ReinforcementLearning\2024-04-23-20-22-32\osm.passenger.rou.xml"/>
    <prefix value="veh"/>
    <trip-attributes value="departLane=&quot;best&quot;"/>
    <fringe-start-attributes value="departSpeed=&quot;max&quot;"/>
    <vehicle-class value="passenger"/>
    <lanes value="True"/>
    <fringe-factor value="5"/>
    <allow-fringe.min-length value="1000.0"/>
    <via-edge-types value="highway.motorway,highway.motorway_link,highway.trunk_link,highway.primary_link,highway.secondary_link,highway.tertiary_link"/>
    <min-distance value="300.0"/>
    <min-distance.fringe value="10.0"/>
    <remove-loops value="True"/>
    <validate value="True"/>
    <insertion-density value="12.0"/>
</configuration>
-->

<!-- generated on 2024-04-23 20:23:02 by Eclipse SUMO duarouter Version 1.19.0
<configuration xmlns:xsi="http://www.w3.org/2001/XMLSchema-instance" xsi:noNamespaceSchemaLocation="http://sumo.dlr.de/xsd/duarouterConfiguration.xsd">

    <input>
        <net-file value="F:\SUMO\OptimalEmission-SUMO-ReinforcementLearning\2024-04-23-20-22-32\osm.net.xml.gz"/>
        <route-files value="F:\SUMO\OptimalEmission-SUMO-ReinforcementLearning\2024-04-23-20-22-32\osm.passenger.trips.xml"/>
    </input>

    <output>
        <output-file value="F:\SUMO\OptimalEmission-SUMO-ReinforcementLearning\2024-04-23-20-22-32\osm.passenger.trips.xml.tmp"/>
        <alternatives-output value="NUL"/>
        <write-trips value="true"/>
    </output>

    <processing>
        <remove-loops value="true"/>
    </processing>

    <time>
        <begin value="0.0"/>
        <end value="3600.0"/>
    </time>

    <report>
        <no-warnings value="true"/>
        <ignore-errors value="true"/>
        <no-step-log value="true"/>
    </report>

</configuration>
-->

<routes xmlns:xsi="http://www.w3.org/2001/XMLSchema-instance" xsi:noNamespaceSchemaLocation="http://sumo.dlr.de/xsd/routes_file.xsd">
    <vType id="veh_passenger" vClass="passenger"/>
    <trip id="veh0" type="veh_passenger" depart="0.00" departLane="best" departSpeed="max" from="428111148" to="237048434#1"/>
    <trip id="veh1" type="veh_passenger" depart="0.84" departLane="best" from="211556995#3" to="196799738#0"/>
    <trip id="veh2" type="veh_passenger" depart="1.68" departLane="best" from="8579700#1" to="935890056#0"/>
    <trip id="veh3" type="veh_passenger" depart="2.52" departLane="best" from="289934633#2" to="-258534130#2"/>
    <trip id="veh5" type="veh_passenger" depart="4.19" departLane="best" from="-251628553" to="16973673"/>
    <trip id="veh6" type="veh_passenger" depart="5.03" departLane="best" from="-431548665" to="424630809#7"/>
    <trip id="veh7" type="veh_passenger" depart="5.87" departLane="best" from="16652239" to="425925638#1"/>
    <trip id="veh8" type="veh_passenger" depart="6.71" departLane="best" from="699864648" to="-128508562"/>
    <trip id="veh9" type="veh_passenger" depart="7.55" departLane="best" from="679196742#2" to="46892385#1"/>
    <trip id="veh11" type="veh_passenger" depart="9.22" departLane="best" from="943001486" to="244936623#0"/>
    <trip id="veh12" type="veh_passenger" depart="10.06" departLane="best" from="-577923696#0" to="1005029799#0"/>
    <trip id="veh13" type="veh_passenger" depart="10.90" departLane="best" from="78407131#5" to="425929193"/>
    <trip id="veh14" type="veh_passenger" depart="11.74" departLane="best" from="679361689#1" to="491421502#2"/>
    <trip id="veh15" type="veh_passenger" depart="12.58" departLane="best" from="405495014#2" to="945510041"/>
    <trip id="veh16" type="veh_passenger" depart="13.42" departLane="best" from="252274187#0" to="424630842"/>
    <trip id="veh17" type="veh_passenger" depart="14.26" departLane="best" from="72916477#2" to="429353539#1"/>
    <trip id="veh18" type="veh_passenger" depart="15.09" departLane="best" departSpeed="max" from="8103468#0" to="425850168#2"/>
    <trip id="veh19" type="veh_passenger" depart="15.93" departLane="best" from="46892974#0" to="-38630633"/>
    <trip id="veh20" type="veh_passenger" depart="16.77" departLane="best" departSpeed="max" from="172433906" to="235497097#0"/>
    <trip id="veh21" type="veh_passenger" depart="17.61" departLane="best" from="-435973649" to="-211060858"/>
    <trip id="veh22" type="veh_passenger" depart="18.45" departLane="best" departSpeed="max" from="-75416395" to="230629152#8"/>
    <trip id="veh23" type="veh_passenger" depart="19.29" departLane="best" from="426256003" to="252790570#1"/>
    <trip id="veh24" type="veh_passenger" depart="20.13" departLane="best" from="245958752" to="183462544"/>
    <trip id="veh25" type="veh_passenger" depart="20.96" departLane="best" from="203314697-AddedOffRampEdge" to="-935890057"/>
    <trip id="veh28" type="veh_passenger" depart="23.48" departLane="best" from="128509885" to="25953773#1"/>
    <trip id="veh29" type="veh_passenger" depart="24.32" departLane="best" from="96124536" to="431552169"/>
    <trip id="veh30" type="veh_passenger" depart="25.16" departLane="best" from="424394662#5" to="454693651"/>
    <trip id="veh31" type="veh_passenger" depart="26.00" departLane="best" from="780170819" to="565539538#4"/>
    <trip id="veh32" type="veh_passenger" depart="26.83" departLane="best" departSpeed="max" from="172728794" to="-278916130"/>
    <trip id="veh33" type="veh_passenger" depart="27.67" departLane="best" from="231226535#2" to="230628801#1"/>
    <trip id="veh35" type="veh_passenger" depart="29.35" departLane="best" from="8579093#0" to="237048499#6"/>
    <trip id="veh36" type="veh_passenger" depart="30.19" departLane="best" from="435973650-AddedOffRampEdge" to="279007738#0"/>
    <trip id="veh37" type="veh_passenger" depart="31.03" departLane="best" from="909387495#3" to="37916464#2"/>
    <trip id="veh38" type="veh_passenger" depart="31.87" departLane="best" departSpeed="max" from="203314697" to="212723117#3"/>
    <trip id="veh39" type="veh_passenger" depart="32.70" departLane="best" from="424419378#0" to="230593246#1"/>
    <trip id="veh40" type="veh_passenger" depart="33.54" departLane="best" from="425458231" to="8841627#0"/>
    <trip id="veh42" type="veh_passenger" depart="35.22" departLane="best" from="985859724" to="405495014#2"/>
    <trip id="veh44" type="veh_passenger" depart="36.90" departLane="best" departSpeed="max" from="-8841627#1" to="430129437#1"/>
    <trip id="veh45" type="veh_passenger" depart="37.74" departLane="best" departSpeed="max" from="589515206#0" to="34436963#0"/>
    <trip id="veh47" type="veh_passenger" depart="39.41" departLane="best" from="981327956#1" to="424394652#2"/>
    <trip id="veh48" type="veh_passenger" depart="40.25" departLane="best" from="945221624" to="8375715#3"/>
    <trip id="veh49" type="veh_passenger" depart="41.09" departLane="best" from="-134364076#0" to="48661214"/>
    <trip id="veh50" type="veh_passenger" depart="41.93" departLane="best" from="454592878#1" to="424419378#4"/>
    <trip id="veh51" type="veh_passenger" depart="42.77" departLane="best" from="203314697-AddedOffRampEdge" to="431552170#1"/>
    <trip id="veh52" type="veh_passenger" depart="43.61" departLane="best" from="933595464#0" to="37253817"/>
    <trip id="veh53" type="veh_passenger" depart="44.44" departLane="best" from="358287045#1" to="943943780"/>
    <trip id="veh54" type="veh_passenger" depart="45.28" departLane="best" from="8578602" to="230597451#1"/>
    <trip id="veh56" type="veh_passenger" depart="46.96" departLane="best" from="909387495#0" to="8579142"/>
    <trip id="veh57" type="veh_passenger" depart="47.80" departLane="best" from="230621491#1" to="431552168#1"/>
    <trip id="veh58" type="veh_passenger" depart="48.64" departLane="best" from="425923715#2" to="128519867#0"/>
    <trip id="veh60" type="veh_passenger" depart="50.31" departLane="best" from="565539538#2" to="424394653#0"/>
    <trip id="veh61" type="veh_passenger" depart="51.15" departLane="best" from="-1005029796#1" to="237861714"/>
    <trip id="veh62" type="veh_passenger" depart="51.99" departLane="best" from="22999494" to="934031945"/>
    <trip id="veh63" type="veh_passenger" depart="52.83" departLane="best" from="8579142" to="773558342"/>
    <trip id="veh64" type="veh_passenger" depart="53.67" departLane="best" from="230628807#4" to="430128411"/>
    <trip id="veh65" type="veh_passenger" depart="54.51" departLane="best" from="8579115" to="936824210#1"/>
    <trip id="veh66" type="veh_passenger" depart="55.35" departLane="best" from="-479772614" to="38583820"/>
    <trip id="veh68" type="veh_passenger" depart="57.02" departLane="best" departSpeed="max" from="524259568" to="1231761026#1"/>
    <trip id="veh69" type="veh_passenger" depart="57.86" departLane="best" from="37916342#2" to="424630819#8"/>
    <trip id="veh70" type="veh_passenger" depart="58.70" departLane="best" departSpeed="max" from="203314697" to="8579185"/>
    <trip id="veh71" type="veh_passenger" depart="59.54" departLane="best" departSpeed="max" from="289934634#0" to="183489030#0"/>
    <trip id="veh72" type="veh_passenger" depart="60.38" departLane="best" from="409861329#1" to="491421503#0"/>
    <trip id="veh73" type="veh_passenger" depart="61.21" departLane="best" from="13863676" to="237048498"/>
    <trip id="veh74" type="veh_passenger" depart="62.05" departLane="best" from="981327955" to="435974907"/>
    <trip id="veh76" type="veh_passenger" depart="63.73" departLane="best" from="-945530874" to="197054866#0"/>
    <trip id="veh78" type="veh_passenger" depart="65.41" departLane="best" from="172730502" to="195270962"/>
    <trip id="veh79" type="veh_passenger" depart="66.25" departLane="best" departSpeed="max" from="172728794" to="901230556"/>
    <trip id="veh80" type="veh_passenger" depart="67.08" departLane="best" from="8103459#0" to="560266874#0"/>
    <trip id="veh81" type="veh_passenger" depart="67.92" departLane="best" from="181593985#3" to="454561009#1"/>
    <trip id="veh82" type="veh_passenger" depart="68.76" departLane="best" from="15260367" to="1252992761#0"/>
    <trip id="veh83" type="veh_passenger" depart="69.60" departLane="best" departSpeed="max" from="935573770#0" to="-425838710#0"/>
    <trip id="veh84" type="veh_passenger" depart="70.44" departLane="best" departSpeed="max" from="37916341#0" to="577930659#1"/>
    <trip id="veh85" type="veh_passenger" depart="71.28" departLane="best" from="68280131" to="15263136#3"/>
    <trip id="veh87" type="veh_passenger" depart="72.95" departLane="best" departSpeed="max" from="289934634#0" to="37916533#2"/>
    <trip id="veh88" type="veh_passenger" depart="73.79" departLane="best" from="487857215" to="454570246"/>
    <trip id="veh89" type="veh_passenger" depart="74.63" departLane="best" from="961097962#1" to="1006443247"/>
    <trip id="veh91" type="veh_passenger" depart="76.31" departLane="best" departSpeed="max" from="8103468#0" to="-217770340#1"/>
    <trip id="veh92" type="veh_passenger" depart="77.15" departLane="best" from="134363700#1" to="37916369#1"/>
    <trip id="veh93" type="veh_passenger" depart="77.99" departLane="best" from="289934633#2" to="230631614#1"/>
    <trip id="veh94" type="veh_passenger" depart="78.82" departLane="best" from="183489045#1" to="933354646"/>
    <trip id="veh96" type="veh_passenger" depart="80.50" departLane="best" from="424389521#3" to="425691907"/>
    <trip id="veh97" type="veh_passenger" depart="81.34" departLane="best" from="999982296" to="780170816"/>
    <trip id="veh98" type="veh_passenger" depart="82.18" departLane="best" from="944861931#1" to="933595466#1"/>
    <trip id="veh99" type="veh_passenger" depart="83.02" departLane="best" from="68280131" to="134364404#2"/>
    <trip id="veh100" type="veh_passenger" depart="83.86" departLane="best" from="-37916388#0" to="183489040#1"/>
    <trip id="veh101" type="veh_passenger" depart="84.69" departLane="best" from="272898748" to="-430128415#0"/>
    <trip id="veh102" type="veh_passenger" depart="85.53" departLane="best" from="252274187#1" to="961097967#0"/>
    <trip id="veh103" type="veh_passenger" depart="86.37" departLane="best" departSpeed="max" from="203314697" to="-577924483#1"/>
    <trip id="veh104" type="veh_passenger" depart="87.21" departLane="best" from="369630800#0" to="355326291#1"/>
    <trip id="veh105" type="veh_passenger" depart="88.05" departLane="best" from="943001486" to="981327955"/>
    <trip id="veh106" type="veh_passenger" depart="88.89" departLane="best" from="424394662#2" to="48651850"/>
    <trip id="veh107" type="veh_passenger" depart="89.73" departLane="best" from="128194053#3" to="237048431"/>
    <trip id="veh108" type="veh_passenger" depart="90.56" departLane="best" from="944861931#1" to="425850171#4"/>
    <trip id="veh109" type="veh_passenger" depart="91.40" departLane="best" from="409861831#1" to="521940067"/>
    <trip id="veh110" type="veh_passenger" depart="92.24" departLane="best" from="37916618" to="8103483"/>
    <trip id="veh111" type="veh_passenger" depart="93.08" departLane="best" from="128508555#3" to="944828264"/>
    <trip id="veh112" type="veh_passenger" depart="93.92" departLane="best" from="-454570241" to="15260367"/>
    <trip id="veh113" type="veh_passenger" depart="94.76" departLane="best" from="425694030#0" to="454570252"/>
    <trip id="veh114" type="veh_passenger" depart="95.60" departLane="best" from="181593980#0" to="-258534130#0"/>
    <trip id="veh115" type="veh_passenger" depart="96.43" departLane="best" from="419513797#1" to="212723117#2"/>
    <trip id="veh116" type="veh_passenger" depart="97.27" departLane="best" from="425694029" to="429353540"/>
    <trip id="veh117" type="veh_passenger" depart="98.11" departLane="best" departSpeed="max" from="289934633#0" to="425923715#3"/>
    <trip id="veh119" type="veh_passenger" depart="99.79" departLane="best" departSpeed="max" from="183462529" to="279007738#0"/>
    <trip id="veh120" type="veh_passenger" depart="100.63" departLane="best" from="454562734" to="237048434#4"/>
    <trip id="veh121" type="veh_passenger" depart="101.47" departLane="best" from="231230647#0" to="524256404"/>
    <trip id="veh122" type="veh_passenger" depart="102.30" departLane="best" departSpeed="max" from="-431550225" to="37916464#1"/>
    <trip id="veh123" type="veh_passenger" depart="103.14" departLane="best" from="992030492" to="981327956#0"/>
    <trip id="veh124" type="veh_passenger" depart="103.98" departLane="best" departSpeed="max" from="-431550231" to="183489030#2"/>
    <trip id="veh125" type="veh_passenger" depart="104.82" departLane="best" departSpeed="max" from="203314697" to="935537752#4"/>
    <trip id="veh126" type="veh_passenger" depart="105.66" departLane="best" departSpeed="max" from="8579181#0" to="8579426"/>
    <trip id="veh127" type="veh_passenger" depart="106.50" departLane="best" from="245958752" to="133124798#1"/>
    <trip id="veh128" type="veh_passenger" depart="107.34" departLane="best" from="788308776#0" to="46927933#0"/>
    <trip id="veh129" type="veh_passenger" depart="108.17" departLane="best" from="425923723#3" to="96124518"/>
    <trip id="veh130" type="veh_passenger" depart="109.01" departLane="best" from="435973649" to="-128508563#2"/>
    <trip id="veh132" type="veh_passenger" depart="110.69" departLane="best" from="446730420#0" to="936107423"/>
    <trip id="veh133" type="veh_passenger" depart="111.53" departLane="best" from="1080789231#3" to="1080801251#1"/>
    <trip id="veh134" type="veh_passenger" depart="112.37" departLane="best" from="211556988" to="425929198"/>
    <trip id="veh135" type="veh_passenger" depart="113.21" departLane="best" from="470252931#0" to="172730502"/>
    <trip id="veh136" type="veh_passenger" depart="114.04" departLane="best" from="426247930#0" to="230615749#1"/>
    <trip id="veh137" type="veh_passenger" depart="114.88" departLane="best" from="37916421#5" to="901230556"/>
    <trip id="veh138" type="veh_passenger" depart="115.72" departLane="best" from="78407131#0" to="-944822703"/>
    <trip id="veh140" type="veh_passenger" depart="117.40" departLane="best" departSpeed="max" from="-1227666868" to="565539527#2"/>
    <trip id="veh141" type="veh_passenger" depart="118.24" departLane="best" from="426256006#1" to="230593246#0"/>
    <trip id="veh142" type="veh_passenger" depart="119.08" departLane="best" departSpeed="max" from="499334585" to="424630832"/>
    <trip id="veh143" type="veh_passenger" depart="119.91" departLane="best" from="290026187#0" to="128515110#2"/>
    <trip id="veh144" type="veh_passenger" depart="120.75" departLane="best" departSpeed="max" from="-431550233" to="8579573"/>
    <trip id="veh145" type="veh_passenger" depart="121.59" departLane="best" from="904101255#1" to="424630814#0"/>
    <trip id="veh146" type="veh_passenger" depart="122.43" departLane="best" from="75416428" to="425923713"/>
    <trip id="veh147" type="veh_passenger" depart="123.27" departLane="best" from="230628808#4" to="884851585#0"/>
    <trip id="veh148" type="veh_passenger" depart="124.11" departLane="best" from="62265344" to="8375715#3"/>
    <trip id="veh149" type="veh_passenger" depart="124.95" departLane="best" from="867254103#0" to="183462544"/>
    <trip id="veh150" type="veh_passenger" depart="125.78" departLane="best" from="183489045#0" to="1024362617#1"/>
    <trip id="veh151" type="veh_passenger" depart="126.62" departLane="best" from="565903323#0" to="8579600"/>
    <trip id="veh152" type="veh_passenger" depart="127.46" departLane="best" from="278916131" to="429715969#0"/>
    <trip id="veh153" type="veh_passenger" depart="128.30" departLane="best" from="128194053#2" to="935509299"/>
    <trip id="veh156" type="veh_passenger" depart="130.82" departLane="best" departSpeed="max" from="-237048434#4" to="51385875#0"/>
    <trip id="veh157" type="veh_passenger" depart="131.65" departLane="best" from="-237048434#0" to="935537752#1"/>
    <trip id="veh158" type="veh_passenger" depart="132.49" departLane="best" from="662540606#0" to="857070481#2"/>
    <trip id="veh160" type="veh_passenger" depart="134.17" departLane="best" from="38630335" to="1031685924#0"/>
    <trip id="veh161" type="veh_passenger" depart="135.01" departLane="best" from="8375721" to="8375715#0"/>
    <trip id="veh162" type="veh_passenger" depart="135.85" departLane="best" from="168667915#0" to="710195117#1"/>
    <trip id="veh163" type="veh_passenger" depart="136.69" departLane="best" departSpeed="max" from="37253812#0" to="237048446#0"/>
    <trip id="veh164" type="veh_passenger" depart="137.52" departLane="best" from="620987193#0" to="199121003#1"/>
    <trip id="veh165" type="veh_passenger" depart="138.36" departLane="best" from="-237048434#2" to="16257487#4"/>
    <trip id="veh166" type="veh_passenger" depart="139.20" departLane="best" from="235497118" to="857070481#2"/>
    <trip id="veh167" type="veh_passenger" depart="140.04" departLane="best" from="944861929#0" to="231226535#1"/>
    <trip id="veh168" type="veh_passenger" depart="140.88" departLane="best" from="961097960#0" to="424419378#1"/>
    <trip id="veh169" type="veh_passenger" depart="141.72" departLane="best" from="935971618" to="1080801251#1"/>
    <trip id="veh170" type="veh_passenger" depart="142.56" departLane="best" from="945192155#1" to="14408299"/>
    <trip id="veh171" type="veh_passenger" depart="143.39" departLane="best" from="944795096" to="230623952#2"/>
    <trip id="veh172" type="veh_passenger" depart="144.23" departLane="best" from="8579210#2" to="37253817"/>
    <trip id="veh173" type="veh_passenger" depart="145.07" departLane="best" from="48661216#1" to="237048499#4"/>
    <trip id="veh174" type="veh_passenger" depart="145.91" departLane="best" from="425923713" to="409861328#1"/>
    <trip id="veh175" type="veh_passenger" depart="146.75" departLane="best" from="230628808#7" to="425850165#2"/>
    <trip id="veh176" type="veh_passenger" depart="147.59" departLane="best" departSpeed="max" from="186496569#0" to="470252928#2"/>
    <trip id="veh177" type="veh_passenger" depart="148.43" departLane="best" departSpeed="max" from="-1081163374#1" to="933595464#0"/>
    <trip id="veh178" type="veh_passenger" depart="149.26" departLane="best" from="409861328#1" to="48661202"/>
    <trip id="veh179" type="veh_passenger" depart="150.10" departLane="best" departSpeed="max" from="504331803#0" to="-454570241"/>
    <trip id="veh180" type="veh_passenger" depart="150.94" departLane="best" from="446730420#1" to="237876563"/>
    <trip id="veh181" type="veh_passenger" depart="151.78" departLane="best" from="230629152#8" to="801981836#1"/>
    <trip id="veh182" type="veh_passenger" depart="152.62" departLane="best" departSpeed="max" from="479772614" to="237048434#4"/>
    <trip id="veh185" type="veh_passenger" depart="155.13" departLane="best" from="1024362615" to="338999840#1"/>
    <trip id="veh186" type="veh_passenger" depart="155.97" departLane="best" departSpeed="max" from="936091185" to="454576373"/>
    <trip id="veh188" type="veh_passenger" depart="157.65" departLane="best" from="230628800#1" to="424630819#5"/>
    <trip id="veh189" type="veh_passenger" depart="158.49" departLane="best" from="1005029796#1" to="234827311#0"/>
    <trip id="veh190" type="veh_passenger" depart="159.33" departLane="best" departSpeed="max" from="292218189#0" to="425854163#1"/>
    <trip id="veh191" type="veh_passenger" depart="160.17" departLane="best" from="435973650" to="37916527#2"/>
    <trip id="veh193" type="veh_passenger" depart="161.84" departLane="best" departSpeed="max" from="37916341#0" to="884851585#0"/>
    <trip id="veh194" type="veh_passenger" depart="162.68" departLane="best" from="622484037" to="134365461#3"/>
    <trip id="veh195" type="veh_passenger" depart="163.52" departLane="best" departSpeed="max" from="-46932090" to="410081054#0"/>
    <trip id="veh196" type="veh_passenger" depart="164.36" departLane="best" from="425934934#0" to="241318609"/>
    <trip id="veh197" type="veh_passenger" depart="165.20" departLane="best" from="705005537#1" to="524256403#1"/>
    <trip id="veh198" type="veh_passenger" depart="166.04" departLane="best" from="454562735" to="-197054862#1"/>
    <trip id="veh199" type="veh_passenger" depart="166.87" departLane="best" from="13858047#0" to="-231341699"/>
    <trip id="veh200" type="veh_passenger" depart="167.71" departLane="best" from="183489030#0" to="37918159"/>
    <trip id="veh201" type="veh_passenger" depart="168.55" departLane="best" from="786987811" to="-577924483#0"/>
    <trip id="veh203" type="veh_passenger" depart="170.23" departLane="best" from="134364404#2" to="46892383#1"/>
    <trip id="veh204" type="veh_passenger" depart="171.07" departLane="best" from="37916483#0" to="212353007#0"/>
    <trip id="veh205" type="veh_passenger" depart="171.91" departLane="best" from="435973650-AddedOffRampEdge" to="128508557"/>
    <trip id="veh207" type="veh_passenger" depart="173.58" departLane="best" from="128515119" to="944795096"/>
    <trip id="veh208" type="veh_passenger" depart="174.42" departLane="best" from="38630154" to="456380334#1"/>
    <trip id="veh209" type="veh_passenger" depart="175.26" departLane="best" from="183489045#0" to="801981836#3"/>
    <trip id="veh210" type="veh_passenger" depart="176.10" departLane="best" from="369630801#1" to="68280131"/>
    <trip id="veh211" type="veh_passenger" depart="176.94" departLane="best" from="447117762#3" to="96124528"/>
    <trip id="veh212" type="veh_passenger" depart="177.77" departLane="best" from="8579573" to="426256006#0"/>
    <trip id="veh213" type="veh_passenger" depart="178.61" departLane="best" from="479772613" to="38738612#1"/>
    <trip id="veh214" type="veh_passenger" depart="179.45" departLane="best" from="72921496" to="424630819#3"/>
    <trip id="veh215" type="veh_passenger" depart="180.29" departLane="best" from="37916341#2" to="230395380#0"/>
    <trip id="veh216" type="veh_passenger" depart="181.13" departLane="best" departSpeed="max" from="183489035" to="431550233"/>
    <trip id="veh217" type="veh_passenger" depart="181.97" departLane="best" departSpeed="max" from="524259568" to="423508799#0"/>
    <trip id="veh218" type="veh_passenger" depart="182.81" departLane="best" from="425929169#3" to="255838492#3"/>
    <trip id="veh219" type="veh_passenger" depart="183.64" departLane="best" departSpeed="max" from="-431552169" to="231713631#1"/>
    <trip id="veh220" type="veh_passenger" depart="184.48" departLane="best" from="211556983#1" to="237169411"/>
    <trip id="veh221" type="veh_passenger" depart="185.32" departLane="best" from="409861830#0" to="-128508563#1"/>
    <trip id="veh222" type="veh_passenger" depart="186.16" departLane="best" from="17446828" to="-462992753"/>
    <trip id="veh223" type="veh_passenger" depart="187.00" departLane="best" from="46927933#0" to="454680854#0"/>
    <trip id="veh224" type="veh_passenger" depart="187.84" departLane="best" from="278923387" to="424630789"/>
    <trip id="veh227" type="veh_passenger" depart="190.35" departLane="best" from="-251628553" to="46892383#0"/>
    <trip id="veh228" type="veh_passenger" depart="191.19" departLane="best" from="79666136" to="543100867"/>
    <trip id="veh229" type="veh_passenger" depart="192.03" departLane="best" from="252274190" to="-128508558"/>
    <trip id="veh230" type="veh_passenger" depart="192.87" departLane="best" from="237455906" to="524256404-AddedOnRampEdge"/>
    <trip id="veh231" type="veh_passenger" depart="193.71" departLane="best" departSpeed="max" from="788308774" to="943031362#1"/>
    <trip id="veh232" type="veh_passenger" depart="194.55" departLane="best" departSpeed="max" from="289934633#0" to="521381109#1"/>
    <trip id="veh233" type="veh_passenger" depart="195.38" departLane="best" from="419513797#0" to="425929172#1"/>
    <trip id="veh235" type="veh_passenger" depart="197.06" departLane="best" from="312280065#2" to="251629004"/>
    <trip id="veh236" type="veh_passenger" depart="197.90" departLane="best" from="237048441#0" to="454592878#1"/>
    <trip id="veh237" type="veh_passenger" depart="198.74" departLane="best" departSpeed="max" from="277794712#0" to="134364404#0"/>
    <trip id="veh238" type="veh_passenger" depart="199.58" departLane="best" from="37253820#2" to="1231761026#0"/>
    <trip id="veh240" type="veh_passenger" depart="201.25" departLane="best" from="25953773#3" to="425691428"/>
    <trip id="veh241" type="veh_passenger" depart="202.09" departLane="best" from="-251629004" to="4331470"/>
    <trip id="veh242" type="veh_passenger" depart="202.93" departLane="best" from="1080789231#4-AddedOffRampEdge" to="37916494#4"/>
    <trip id="veh243" type="veh_passenger" depart="203.77" departLane="best" from="524256724" to="25953773#1"/>
    <trip id="veh244" type="veh_passenger" depart="204.61" departLane="best" from="519488561" to="773558342"/>
    <trip id="veh245" type="veh_passenger" depart="205.45" departLane="best" from="183489045#5" to="-8579210#0"/>
    <trip id="veh247" type="veh_passenger" depart="207.12" departLane="best" from="999982296" to="248758079"/>
    <trip id="veh248" type="veh_passenger" depart="207.96" departLane="best" departSpeed="max" from="431548666#0" to="576932607#0"/>
    <trip id="veh249" type="veh_passenger" depart="208.80" departLane="best" departSpeed="max" from="431550232#0" to="524256724"/>
    <trip id="veh250" type="veh_passenger" depart="209.64" departLane="best" from="-936506429" to="-779662527"/>
    <trip id="veh251" type="veh_passenger" depart="210.48" departLane="best" departSpeed="max" from="424586819" to="183489045#5"/>
    <trip id="veh253" type="veh_passenger" depart="212.16" departLane="best" departSpeed="max" from="128511298" to="425934198#0"/>
    <trip id="veh254" type="veh_passenger" depart="212.99" departLane="best" from="51835022#1" to="1080801251#1"/>
    <trip id="veh256" type="veh_passenger" depart="214.67" departLane="best" from="8579210#1" to="237048434#2"/>
    <trip id="veh257" type="veh_passenger" depart="215.51" departLane="best" from="230629152#3" to="454576373"/>
    <trip id="veh259" type="veh_passenger" depart="217.19" departLane="best" from="470252928#3" to="-736245839#0"/>
    <trip id="veh260" type="veh_passenger" depart="218.03" departLane="best" from="456288159" to="430129437#1"/>
    <trip id="veh261" type="veh_passenger" depart="218.86" departLane="best" from="-779662527" to="565539527#3-AddedOffRampEdge"/>
    <trip id="veh262" type="veh_passenger" depart="219.70" departLane="best" departSpeed="max" from="788308774" to="425929169#0"/>
    <trip id="veh263" type="veh_passenger" depart="220.54" departLane="best" from="-945530874" to="961097963#0"/>
    <trip id="veh265" type="veh_passenger" depart="222.22" departLane="best" from="290026187#2" to="255838492#0"/>
    <trip id="veh266" type="veh_passenger" depart="223.06" departLane="best" from="37918173#1" to="245629364"/>
    <trip id="veh267" type="veh_passenger" depart="223.90" departLane="best" from="786987811" to="72921496"/>
    <trip id="veh268" type="veh_passenger" depart="224.73" departLane="best" from="426256003" to="755536600"/>
    <trip id="veh270" type="veh_passenger" depart="226.41" departLane="best" from="48802843" to="944861929#1"/>
    <trip id="veh271" type="veh_passenger" depart="227.25" departLane="best" from="211556977" to="702319652#1"/>
    <trip id="veh272" type="veh_passenger" depart="228.09" departLane="best" from="405495015" to="38508516#3"/>
    <trip id="veh273" type="veh_passenger" depart="228.93" departLane="best" from="312280065#1" to="49436727#0"/>
    <trip id="veh274" type="veh_passenger" depart="229.77" departLane="best" from="211060855#0" to="8103480"/>