<configuration xmlns:xsi="http://www.w3.org/2001/XMLSchema-instance" xsi:noNamespaceSchemaLocation="http://sumo.dlr.de/xsd/sumoConfiguration.xsd">
    <input>
        <net-file value="data_rand/Random.net.xml"/>
        <route-files value="data_rand/randomTrips.rou.xml"/>
    </input>
    <time>
        <begin value="0"/>
        <end value="3600"/>
    </time>
    <report>
        <verbose value="true"/>
        <no-step-log value="true"/>
    </report>
</configuration>
