<?xml version="1.0" encoding="UTF-8"?>

<!-- generated on 2024-04-23 19:56:28.829672 by osmWebWizard.py v1_19_0+0000-baa66a0f364
<configuration>
    <net-file value="F:\SUMO\OptimalEmission-SUMO-ReinforcementLearning\2024-04-23-19-56-25\osm.net.xml.gz"/>
    <output-trip-file value="F:\SUMO\OptimalEmission-SUMO-ReinforcementLearning\2024-04-23-19-56-25\osm.bus.trips.xml"/>
    <route-file value="F:\SUMO\OptimalEmission-SUMO-ReinforcementLearning\2024-04-23-19-56-25\osm.bus.rou.xml"/>
    <prefix value="bus"/>
    <trip-attributes value="departLane=&quot;best&quot;"/>
    <fringe-start-attributes value="departSpeed=&quot;max&quot;"/>
    <vehicle-class value="bus"/>
    <fringe-factor value="5"/>
    <vclass value="bus"/>
    <via-edge-types value="highway.motorway,highway.motorway_link,highway.trunk_link,highway.primary_link,highway.secondary_link,highway.tertiary_link"/>
    <min-distance value="600.0"/>
    <min-distance.fringe value="10.0"/>
    <remove-loops value="True"/>
    <validate value="True"/>
    <insertion-density value="4.0"/>
</configuration>
-->

<!-- generated on 2024-04-23 19:56:28 by Eclipse SUMO duarouter Version 1.19.0
<configuration xmlns:xsi="http://www.w3.org/2001/XMLSchema-instance" xsi:noNamespaceSchemaLocation="http://sumo.dlr.de/xsd/duarouterConfiguration.xsd">

    <input>
        <net-file value="F:\SUMO\OptimalEmission-SUMO-ReinforcementLearning\2024-04-23-19-56-25\osm.net.xml.gz"/>
        <route-files value="F:\SUMO\OptimalEmission-SUMO-ReinforcementLearning\2024-04-23-19-56-25\osm.bus.trips.xml"/>
    </input>

    <output>
        <output-file value="F:\SUMO\OptimalEmission-SUMO-ReinforcementLearning\2024-04-23-19-56-25\osm.bus.trips.xml.tmp"/>
        <alternatives-output value="NUL"/>
        <write-trips value="true"/>
    </output>

    <processing>
        <remove-loops value="true"/>
    </processing>

    <time>
        <begin value="0.0"/>
        <end value="3600.0"/>
    </time>

    <report>
        <no-warnings value="true"/>
        <ignore-errors value="true"/>
        <no-step-log value="true"/>
    </report>

</configuration>
-->

<routes xmlns:xsi="http://www.w3.org/2001/XMLSchema-instance" xsi:noNamespaceSchemaLocation="http://sumo.dlr.de/xsd/routes_file.xsd">
    <vType id="bus_bus" vClass="bus"/>
    <trip id="bus2" type="bus_bus" depart="15.46" departLane="best" departSpeed="max" from="4940771#0" to="224810250"/>
    <trip id="bus4" type="bus_bus" depart="30.93" departLane="best" departSpeed="max" from="368807834" to="185564104"/>
    <trip id="bus9" type="bus_bus" depart="69.59" departLane="best" departSpeed="max" from="368803034" to="185564104"/>
    <trip id="bus11" type="bus_bus" depart="85.05" departLane="best" departSpeed="max" from="1023658073#0" to="185564104"/>
    <trip id="bus12" type="bus_bus" depart="92.78" departLane="best" departSpeed="max" from="368807834" to="727847068"/>
    <trip id="bus19" type="bus_bus" depart="146.90" departLane="best" departSpeed="max" from="1023658073#0" to="224810204#5"/>
    <trip id="bus20" type="bus_bus" depart="154.63" departLane="best" departSpeed="max" from="368803034" to="185564104"/>
    <trip id="bus22" type="bus_bus" depart="170.10" departLane="best" departSpeed="max" from="727743945" to="219564191#5"/>
    <trip id="bus26" type="bus_bus" depart="201.02" departLane="best" departSpeed="max" from="368807834" to="727847068"/>
    <trip id="bus28" type="bus_bus" depart="216.49" departLane="best" departSpeed="max" from="1023658073#0" to="185564104"/>
    <trip id="bus29" type="bus_bus" depart="224.22" departLane="best" departSpeed="max" from="1023658073#0" to="224810214"/>
    <trip id="bus30" type="bus_bus" depart="231.95" departLane="best" departSpeed="max" from="1023658073#0" to="224810204#5"/>
    <trip id="bus35" type="bus_bus" depart="270.61" departLane="best" departSpeed="max" from="1023658073#0" to="224810204#5"/>
    <trip id="bus36" type="bus_bus" depart="278.34" departLane="best" departSpeed="max" from="368807834" to="727847068"/>
    <trip id="bus37" type="bus_bus" depart="286.07" departLane="best" departSpeed="max" from="727743945" to="219564191#5"/>
    <trip id="bus44" type="bus_bus" depart="340.20" departLane="best" departSpeed="max" from="1023658073#0" to="727847068"/>
    <trip id="bus45" type="bus_bus" depart="347.93" departLane="best" departSpeed="max" from="368803034" to="185564104"/>
    <trip id="bus47" type="bus_bus" depart="363.39" departLane="best" departSpeed="max" from="1023658073#0" to="224810204#5"/>
    <trip id="bus54" type="bus_bus" depart="417.51" departLane="best" departSpeed="max" from="1023658073#0" to="224810214"/>
    <trip id="bus57" type="bus_bus" depart="440.71" departLane="best" departSpeed="max" from="368803034" to="185564104"/>
    <trip id="bus58" type="bus_bus" depart="448.44" departLane="best" departSpeed="max" from="727743945" to="219564191#5"/>
    <trip id="bus59" type="bus_bus" depart="456.17" departLane="best" departSpeed="max" from="1023658073#0" to="224810204#5"/>
    <trip id="bus60" type="bus_bus" depart="463.90" departLane="best" departSpeed="max" from="368807834" to="224810204#5"/>
    <trip id="bus61" type="bus_bus" depart="471.63" departLane="best" departSpeed="max" from="4940771#0" to="224810250"/>
    <trip id="bus63" type="bus_bus" depart="487.10" departLane="best" departSpeed="max" from="368807834" to="224810204#5"/>
    <trip id="bus64" type="bus_bus" depart="494.83" departLane="best" departSpeed="max" from="727743945" to="219564191#5"/>
    <trip id="bus65" type="bus_bus" depart="502.56" departLane="best" departSpeed="max" from="1023658073#0" to="224810204#5"/>
    <trip id="bus67" type="bus_bus" depart="518.02" departLane="best" departSpeed="max" from="368807834" to="727847068"/>
    <trip id="bus68" type="bus_bus" depart="525.76" departLane="best" departSpeed="max" from="368807834" to="185564104"/>
    <trip id="bus73" type="bus_bus" depart="564.41" departLane="best" departSpeed="max" from="368807834" to="185564104"/>
    <trip id="bus75" type="bus_bus" depart="579.88" departLane="best" departSpeed="max" from="368807834" to="224810204#5"/>
    <trip id="bus77" type="bus_bus" depart="595.34" departLane="best" departSpeed="max" from="1023658073#0" to="224810214"/>
    <trip id="bus78" type="bus_bus" depart="603.07" departLane="best" departSpeed="max" from="368807834" to="727847068"/>
    <trip id="bus79" type="bus_bus" depart="610.80" departLane="best" departSpeed="max" from="1023658073#0" to="727847068"/>
    <trip id="bus80" type="bus_bus" depart="618.54" departLane="best" departSpeed="max" from="368803034" to="185564104"/>
    <trip id="bus81" type="bus_bus" depart="626.27" departLane="best" departSpeed="max" from="727743945" to="219564191#5"/>
    <trip id="bus82" type="bus_bus" depart="634.00" departLane="best" departSpeed="max" from="368807834" to="727847068"/>
    <trip id="bus84" type="bus_bus" depart="649.46" departLane="best" departSpeed="max" from="368803034" to="224810204#5"/>
    <trip id="bus85" type="bus_bus" depart="657.20" departLane="best" departSpeed="max" from="4940771#0" to="219564191#5"/>
    <trip id="bus87" type="bus_bus" depart="672.66" departLane="best" departSpeed="max" from="1023658073#0" to="224810204#5"/>
    <trip id="bus90" type="bus_bus" depart="695.85" departLane="best" departSpeed="max" from="368803034" to="185564104"/>
    <trip id="bus93" type="bus_bus" depart="719.05" departLane="best" departSpeed="max" from="727743945" to="219564191#5"/>
    <trip id="bus95" type="bus_bus" depart="734.51" departLane="best" departSpeed="max" from="1023658073#0" to="185564104"/>
    <trip id="bus96" type="bus_bus" depart="742.24" departLane="best" departSpeed="max" from="1023658073#0" to="224810214"/>
    <trip id="bus98" type="bus_bus" depart="757.71" departLane="best" departSpeed="max" from="4940771#0" to="219564191#5"/>
    <trip id="bus99" type="bus_bus" depart="765.44" departLane="best" departSpeed="max" from="4940771#0" to="219564191#5"/>
    <trip id="bus100" type="bus_bus" depart="773.17" departLane="best" departSpeed="max" from="368807834" to="727847068"/>
    <trip id="bus104" type="bus_bus" depart="804.10" departLane="best" departSpeed="max" from="4940771#0" to="219564191#5"/>
    <trip id="bus106" type="bus_bus" depart="819.56" departLane="best" departSpeed="max" from="368807834" to="185564104"/>
    <trip id="bus107" type="bus_bus" depart="827.29" departLane="best" departSpeed="max" from="1023658073#0" to="727847068"/>
    <trip id="bus108" type="bus_bus" depart="835.02" departLane="best" departSpeed="max" from="1023658073#0" to="185564104"/>
    <trip id="bus110" type="bus_bus" depart="850.49" departLane="best" departSpeed="max" from="727743945" to="219564191#5"/>
    <trip id="bus111" type="bus_bus" depart="858.22" departLane="best" departSpeed="max" from="368803034" to="185564104"/>
    <trip id="bus113" type="bus_bus" depart="873.68" departLane="best" departSpeed="max" from="1023658073#0" to="727847068"/>
    <trip id="bus118" type="bus_bus" depart="912.34" departLane="best" departSpeed="max" from="727743945" to="219564191#5"/>
    <trip id="bus123" type="bus_bus" depart="951.00" departLane="best" departSpeed="max" from="4940771#0" to="219564191#5"/>
    <trip id="bus124" type="bus_bus" depart="958.73" departLane="best" departSpeed="max" from="727743945" to="219564191#5"/>
    <trip id="bus126" type="bus_bus" depart="974.20" departLane="best" departSpeed="max" from="727743945" to="219564191#5"/>
    <trip id="bus127" type="bus_bus" depart="981.93" departLane="best" departSpeed="max" from="727743945" to="219564191#5"/>
    <trip id="bus128" type="bus_bus" depart="989.66" departLane="best" departSpeed="max" from="1023658073#0" to="224810204#5"/>
    <trip id="bus129" type="bus_bus" depart="997.39" departLane="best" departSpeed="max" from="4940771#0" to="219564191#5"/>
    <trip id="bus133" type="bus_bus" depart="1028.32" departLane="best" departSpeed="max" from="1023658073#0" to="727847068"/>
    <trip id="bus134" type="bus_bus" depart="1036.05" departLane="best" departSpeed="max" from="4940771#0" to="224810250"/>
    <trip id="bus135" type="bus_bus" depart="1043.78" departLane="best" departSpeed="max" from="368803034" to="185564104"/>
    <trip id="bus136" type="bus_bus" depart="1051.51" departLane="best" departSpeed="max" from="4940771#0" to="219564191#5"/>
    <trip id="bus137" type="bus_bus" depart="1059.24" departLane="best" departSpeed="max" from="4940771#0" to="219564191#5"/>
    <trip id="bus138" type="bus_bus" depart="1066.98" departLane="best" departSpeed="max" from="368803034" to="224810204#5"/>
    <trip id="bus140" type="bus_bus" depart="1082.44" departLane="best" departSpeed="max" from="1023658073#0" to="224810204#5"/>
    <trip id="bus143" type="bus_bus" depart="1105.63" departLane="best" departSpeed="max" from="368807834" to="727847068"/>
    <trip id="bus144" type="bus_bus" depart="1113.37" departLane="best" departSpeed="max" from="4940771#0" to="219564191#5"/>
    <trip id="bus145" type="bus_bus" depart="1121.10" departLane="best" departSpeed="max" from="1023658073#0" to="224810214"/>
    <trip id="bus146" type="bus_bus" depart="1128.83" departLane="best" departSpeed="max" from="4940771#0" to="219564191#5"/>
    <trip id="bus147" type="bus_bus" depart="1136.56" departLane="best" departSpeed="max" from="1023658073#0" to="185564104"/>
    <trip id="bus148" type="bus_bus" depart="1144.29" departLane="best" departSpeed="max" from="368803034" to="224810204#5"/>
    <trip id="bus153" type="bus_bus" depart="1182.95" departLane="best" departSpeed="max" from="4940771#0" to="224810250"/>
    <trip id="bus154" type="bus_bus" depart="1190.68" departLane="best" departSpeed="max" from="1023658073#0" to="224810204#5"/>
    <trip id="bus155" type="bus_bus" depart="1198.41" departLane="best" departSpeed="max" from="1023658073#0" to="727847068"/>
    <trip id="bus156" type="bus_bus" depart="1206.15" departLane="best" departSpeed="max" from="368807834" to="185564104"/>
    <trip id="bus158" type="bus_bus" depart="1221.61" departLane="best" departSpeed="max" from="368807834" to="727847068"/>
    <trip id="bus163" type="bus_bus" depart="1260.27" departLane="best" departSpeed="max" from="4940771#0" to="219564191#5"/>
    <trip id="bus165" type="bus_bus" depart="1275.73" departLane="best" departSpeed="max" from="368807834" to="185564104"/>
    <trip id="bus169" type="bus_bus" depart="1306.66" departLane="best" departSpeed="max" from="368807834" to="727847068"/>
    <trip id="bus170" type="bus_bus" depart="1314.39" departLane="best" departSpeed="max" from="368803034" to="185564104"/>
    <trip id="bus174" type="bus_bus" depart="1345.32" departLane="best" departSpeed="max" from="368807834" to="185564104"/>
    <trip id="bus176" type="bus_bus" depart="1360.78" departLane="best" departSpeed="max" from="368807834" to="185564104"/>
    <trip id="bus177" type="bus_bus" depart="1368.51" departLane="best" departSpeed="max" from="368807834" to="185564104"/>
    <trip id="bus180" type="bus_bus" depart="1391.71" departLane="best" departSpeed="max" from="1023658073#0" to="224810214"/>
    <trip id="bus181" type="bus_bus" depart="1399.44" departLane="best" departSpeed="max" from="1023658073#0" to="224810204#5"/>
    <trip id="bus182" type="bus_bus" depart="1407.17" departLane="best" departSpeed="max" from="1023658073#0" to="224810204#5"/>
    <trip id="bus184" type="bus_bus" depart="1422.63" departLane="best" departSpeed="max" from="4940771#0" to="224810250"/>
    <trip id="bus185" type="bus_bus" depart="1430.37" departLane="best" departSpeed="max" from="368803034" to="185564104"/>
    <trip id="bus186" type="bus_bus" depart="1438.10" departLane="best" departSpeed="max" from="1023658073#0" to="224810214"/>
    <trip id="bus188" type="bus_bus" depart="1453.56" departLane="best" departSpeed="max" from="4940771#0" to="224810250"/>
    <trip id="bus189" type="bus_bus" depart="1461.29" departLane="best" departSpeed="max" from="4940771#0" to="224810250"/>
    <trip id="bus190" type="bus_bus" depart="1469.02" departLane="best" departSpeed="max" from="727743945" to="219564191#5"/>
    <trip id="bus191" type="bus_bus" depart="1476.76" departLane="best" departSpeed="max" from="1023658073#0" to="185564104"/>
    <trip id="bus194" type="bus_bus" depart="1499.95" departLane="best" departSpeed="max" from="4940771#0" to="224810250"/>
    <trip id="bus195" type="bus_bus" depart="1507.68" departLane="best" departSpeed="max" from="1023658073#0" to="224810214"/>
    <trip id="bus198" type="bus_bus" depart="1530.88" departLane="best" departSpeed="max" from="1023658073#0" to="185564104"/>
    <trip id="bus204" type="bus_bus" depart="1577.27" departLane="best" departSpeed="max" from="1023658073#0" to="727847068"/>
    <trip id="bus205" type="bus_bus" depart="1585.00" departLane="best" departSpeed="max" from="368807834" to="224810204#5"/>
    <trip id="bus206" type="bus_bus" depart="1592.73" departLane="best" departSpeed="max" from="368807834" to="224810204#5"/>
    <trip id="bus207" type="bus_bus" depart="1600.46" departLane="best" departSpeed="max" from="1023658073#0" to="727847068"/>
    <trip id="bus208" type="bus_bus" depart="1608.19" departLane="best" departSpeed="max" from="4940771#0" to="224810250"/>
    <trip id="bus211" type="bus_bus" depart="1631.39" departLane="best" departSpeed="max" from="368807834" to="224810204#5"/>
    <trip id="bus213" type="bus_bus" depart="1646.85" departLane="best" departSpeed="max" from="727743945" to="219564191#5"/>
    <trip id="bus214" type="bus_bus" depart="1654.59" departLane="best" departSpeed="max" from="368803034" to="185564104"/>
    <trip id="bus215" type="bus_bus" depart="1662.32" departLane="best" departSpeed="max" from="727743945" to="219564191#5"/>
    <trip id="bus217" type="bus_bus" depart="1677.78" departLane="best" departSpeed="max" from="4940771#0" to="219564191#5"/>
    <trip id="bus218" type="bus_bus" depart="1685.51" departLane="best" departSpeed="max" from="1023658073#0" to="727847068"/>
    <trip id="bus221" type="bus_bus" depart="1708.71" departLane="best" departSpeed="max" from="4940771#0" to="219564191#5"/>
    <trip id="bus222" type="bus_bus" depart="1716.44" departLane="best" departSpeed="max" from="368807834" to="224810204#5"/>
    <trip id="bus223" type="bus_bus" depart="1724.17" departLane="best" departSpeed="max" from="368807834" to="224810204#5"/>
    <trip id="bus224" type="bus_bus" depart="1731.90" departLane="best" departSpeed="max" from="4940771#0" to="219564191#5"/>
    <trip id="bus225" type="bus_bus" depart="1739.63" departLane="best" departSpeed="max" from="4940771#0" to="219564191#5"/>
    <trip id="bus226" type="bus_bus" depart="1747.37" departLane="best" departSpeed="max" from="368803034" to="185564104"/>
    <trip id="bus227" type="bus_bus" depart="1755.10" departLane="best" departSpeed="max" from="1023658073#0" to="185564104"/>
    <trip id="bus228" type="bus_bus" depart="1762.83" departLane="best" departSpeed="max" from="368803034" to="185564104"/>
    <trip id="bus229" type="bus_bus" depart="1770.56" departLane="best" departSpeed="max" from="1023658073#0" to="185564104"/>
    <trip id="bus233" type="bus_bus" depart="1801.49" departLane="best" departSpeed="max" from="368807834" to="224810204#5"/>
    <trip id="bus234" type="bus_bus" depart="1809.22" departLane="best" departSpeed="max" from="1023658073#0" to="185564104"/>
    <trip id="bus237" type="bus_bus" depart="1832.41" departLane="best" departSpeed="max" from="1023658073#0" to="224810214"/>
    <trip id="bus238" type="bus_bus" depart="1840.15" departLane="best" departSpeed="max" from="1023658073#0" to="185564104"/>
    <trip id="bus242" type="bus_bus" depart="1871.07" departLane="best" departSpeed="max" from="4940771#0" to="219564191#5"/>
    <trip id="bus243" type="bus_bus" depart="1878.80" departLane="best" departSpeed="max" from="368807834" to="224810204#5"/>
    <trip id="bus244" type="bus_bus" depart="1886.54" departLane="best" departSpeed="max" from="368807834" to="727847068"/>
    <trip id="bus245" type="bus_bus" depart="1894.27" departLane="best" departSpeed="max" from="727743945" to="219564191#5"/>
    <trip id="bus250" type="bus_bus" depart="1932.93" departLane="best" departSpeed="max" from="1023658073#0" to="185564104"/>
    <trip id="bus251" type="bus_bus" depart="1940.66" departLane="best" departSpeed="max" from="1023658073#0" to="224810204#5"/>
    <trip id="bus260" type="bus_bus" depart="2010.24" departLane="best" departSpeed="max" from="368803034" to="185564104"/>
    <trip id="bus261" type="bus_bus" depart="2017.98" departLane="best" departSpeed="max" from="4940771#0" to="224810250"/>
    <trip id="bus262" type="bus_bus" depart="2025.71" departLane="best" departSpeed="max" from="368807834" to="185564104"/>
    <trip id="bus263" type="bus_bus" depart="2033.44" departLane="best" departSpeed="max" from="1023658073#0" to="224810204#5"/>
    <trip id="bus265" type="bus_bus" depart="2048.90" departLane="best" departSpeed="max" from="1023658073#0" to="727847068"/>
    <trip id="bus267" type="bus_bus" depart="2064.37" departLane="best" departSpeed="max" from="4940771#0" to="219564191#5"/>
    <trip id="bus269" type="bus_bus" depart="2079.83" departLane="best" departSpeed="max" from="727743945" to="219564191#5"/>
    <trip id="bus270" type="bus_bus" depart="2087.56" departLane="best" departSpeed="max" from="368807834" to="185564104"/>
    <trip id="bus275" type="bus_bus" depart="2126.22" departLane="best" departSpeed="max" from="368807834" to="224810204#5"/>
    <trip id="bus276" type="bus_bus" depart="2133.95" departLane="best" departSpeed="max" from="1023658073#0" to="224810204#5"/>
    <trip id="bus278" type="bus_bus" depart="2149.41" departLane="best" departSpeed="max" from="4940771#0" to="219564191#5"/>
    <trip id="bus279" type="bus_bus" depart="2157.15" departLane="best" departSpeed="max" from="368807834" to="727847068"/>
    <trip id="bus280" type="bus_bus" depart="2164.88" departLane="best" departSpeed="max" from="1023658073#0" to="727847068"/>
    <trip id="bus281" type="bus_bus" depart="2172.61" departLane="best" departSpeed="max" from="4940771#0" to="219564191#5"/>
    <trip id="bus282" type="bus_bus" depart="2180.34" departLane="best" departSpeed="max" from="1023658073#0" to="224810214"/>
    <trip id="bus283" type="bus_bus" depart="2188.07" departLane="best" departSpeed="max" from="368807834" to="185564104"/>
    <trip id="bus285" type="bus_bus" depart="2203.54" departLane="best" departSpeed="max" from="368807834" to="185564104"/>
    <trip id="bus288" type="bus_bus" depart="2226.73" departLane="best" departSpeed="max" from="727743945" to="219564191#5"/>
    <trip id="bus289" type="bus_bus" depart="2234.46" departLane="best" departSpeed="max" from="368807834" to="224810204#5"/>
    <trip id="bus292" type="bus_bus" depart="2257.66" departLane="best" departSpeed="max" from="368807834" to="727847068"/>
    <trip id="bus294" type="bus_bus" depart="2273.12" departLane="best" departSpeed="max" from="368807834" to="727847068"/>
    <trip id="bus295" type="bus_bus" depart="2280.85" departLane="best" departSpeed="max" from="368807834" to="185564104"/>
    <trip id="bus296" type="bus_bus" depart="2288.59" departLane="best" departSpeed="max" from="368807834" to="224810204#5"/>
    <trip id="bus301" type="bus_bus" depart="2327.24" departLane="best" departSpeed="max" from="4940771#0" to="224810250"/>
    <trip id="bus303" type="bus_bus" depart="2342.71" departLane="best" departSpeed="max" from="4940771#0" to="224810250"/>
    <trip id="bus305" type="bus_bus" depart="2358.17" departLane="best" departSpeed="max" from="1023658073#0" to="224810214"/>
    <trip id="bus306" type="bus_bus" depart="2365.90" departLane="best" departSpeed="max" from="368807834" to="727847068"/>
    <trip id="bus308" type="bus_bus" depart="2381.37" departLane="best" departSpeed="max" from="368807834" to="224810204#5"/>
    <trip id="bus310" type="bus_bus" depart="2396.83" departLane="best" departSpeed="max" from="368807834" to="727847068"/>
    <trip id="bus315" type="bus_bus" depart="2435.49" departLane="best" departSpeed="max" from="4940771#0" to="224810250"/>
    <trip id="bus317" type="bus_bus" depart="2450.95" departLane="best" departSpeed="max" from="1023658073#0" to="224810214"/>
    <trip id="bus319" type="bus_bus" depart="2466.41" departLane="best" departSpeed="max" from="1023658073#0" to="224810214"/>
    <trip id="bus323" type="bus_bus" depart="2497.34" departLane="best" departSpeed="max" from="368803034" to="224810204#5"/>
    <trip id="bus324" type="bus_bus" depart="2505.07" departLane="best" departSpeed="max" from="1023658073#0" to="224810214"/>
    <trip id="bus325" type="bus_bus" depart="2512.80" departLane="best" departSpeed="max" from="1023658073#0" to="185564104"/>
    <trip id="bus326" type="bus_bus" depart="2520.54" departLane="best" departSpeed="max" from="1023658073#0" to="224810204#5"/>
    <trip id="bus329" type="bus_bus" depart="2543.73" departLane="best" departSpeed="max" from="1023658073#0" to="224810204#5"/>
    <trip id="bus331" type="bus_bus" depart="2559.19" departLane="best" departSpeed="max" from="1023658073#0" to="224810204#5"/>
    <trip id="bus333" type="bus_bus" depart="2574.66" departLane="best" departSpeed="max" from="727743945" to="219564191#5"/>
    <trip id="bus335" type="bus_bus" depart="2590.12" departLane="best" departSpeed="max" from="4940771#0" to="224810250"/>
    <trip id="bus336" type="bus_bus" depart="2597.85" departLane="best" departSpeed="max" from="1023658073#0" to="224810214"/>
    <trip id="bus337" type="bus_bus" depart="2605.59" departLane="best" departSpeed="max" from="368807834" to="727847068"/>
    <trip id="bus340" type="bus_bus" depart="2628.78" departLane="best" departSpeed="max" from="4940771#0" to="224810250"/>
    <trip id="bus343" type="bus_bus" depart="2651.98" departLane="best" departSpeed="max" from="4940771#0" to="219564191#5"/>
    <trip id="bus346" type="bus_bus" depart="2675.17" departLane="best" departSpeed="max" from="1023658073#0" to="185564104"/>
    <trip id="bus347" type="bus_bus" depart="2682.90" departLane="best" departSpeed="max" from="368807834" to="727847068"/>
    <trip id="bus348" type="bus_bus" depart="2690.63" departLane="best" departSpeed="max" from="368807834" to="727847068"/>
    <trip id="bus349" type="bus_bus" depart="2698.37" departLane="best" departSpeed="max" from="727743945" to="219564191#5"/>
    <trip id="bus351" type="bus_bus" depart="2713.83" departLane="best" departSpeed="max" from="368803034" to="185564104"/>
    <trip id="bus356" type="bus_bus" depart="2752.49" departLane="best" departSpeed="max" from="1023658073#0" to="224810214"/>
    <trip id="bus359" type="bus_bus" depart="2775.68" departLane="best" departSpeed="max" from="1023658073#0" to="727847068"/>
    <trip id="bus360" type="bus_bus" depart="2783.41" departLane="best" departSpeed="max" from="368807834" to="727847068"/>
    <trip id="bus361" type="bus_bus" depart="2791.15" departLane="best" departSpeed="max" from="368803034" to="185564104"/>
    <trip id="bus363" type="bus_bus" depart="2806.61" departLane="best" departSpeed="max" from="368803034" to="224810204#5"/>
    <trip id="bus364" type="bus_bus" depart="2814.34" departLane="best" departSpeed="max" from="1023658073#0" to="727847068"/>
    <trip id="bus365" type="bus_bus" depart="2822.07" departLane="best" departSpeed="max" from="368803034" to="224810204#5"/>
    <trip id="bus366" type="bus_bus" depart="2829.80" departLane="best" departSpeed="max" from="1023658073#0" to="727847068"/>
    <trip id="bus367" type="bus_bus" depart="2837.54" departLane="best" departSpeed="max" from="1023658073#0" to="224810204#5"/>
    <trip id="bus368" type="bus_bus" depart="2845.27" departLane="best" departSpeed="max" from="4940771#0" to="224810250"/>
    <trip id="bus371" type="bus_bus" depart="2868.46" departLane="best" departSpeed="max" from="368807834" to="185564104"/>
    <trip id="bus372" type="bus_bus" depart="2876.19" departLane="best" departSpeed="max" from="368807834" to="224810204#5"/>
    <trip id="bus374" type="bus_bus" depart="2891.66" departLane="best" departSpeed="max" from="368803034" to="224810204#5"/>
    <trip id="bus377" type="bus_bus" depart="2914.85" departLane="best" departSpeed="max" from="368807834" to="727847068"/>
    <trip id="bus378" type="bus_bus" depart="2922.59" departLane="best" departSpeed="max" from="368803034" to="224810204#5"/>
    <trip id="bus379" type="bus_bus" depart="2930.32" departLane="best" departSpeed="max" from="1023658073#0" to="185564104"/>
    <trip id="bus382" type="bus_bus" depart="2953.51" departLane="best" departSpeed="max" from="368807834" to="185564104"/>
    <trip id="bus383" type="bus_bus" depart="2961.24" departLane="best" departSpeed="max" from="4940771#0" to="219564191#5"/>
    <trip id="bus384" type="bus_bus" depart="2968.98" departLane="best" departSpeed="max" from="1023658073#0" to="224810214"/>
    <trip id="bus387" type="bus_bus" depart="2992.17" departLane="best" departSpeed="max" from="727743945" to="219564191#5"/>
    <trip id="bus388" type="bus_bus" depart="2999.90" departLane="best" departSpeed="max" from="1023658073#0" to="727847068"/>
    <trip id="bus389" type="bus_bus" depart="3007.63" departLane="best" departSpeed="max" from="1023658073#0" to="727847068"/>
    <trip id="bus390" type="bus_bus" depart="3015.37" departLane="best" departSpeed="max" from="1023658073#0" to="185564104"/>
    <trip id="bus395" type="bus_bus" depart="3054.02" departLane="best" departSpeed="max" from="1023658073#0" to="185564104"/>
    <trip id="bus398" type="bus_bus" depart="3077.22" departLane="best" departSpeed="max" from="1023658073#0" to="224810214"/>
    <trip id="bus401" type="bus_bus" depart="3100.41" departLane="best" departSpeed="max" from="368807834" to="224810204#5"/>
    <trip id="bus403" type="bus_bus" depart="3115.88" departLane="best" departSpeed="max" from="368807834" to="224810204#5"/>
    <trip id="bus405" type="bus_bus" depart="3131.34" departLane="best" departSpeed="max" from="1023658073#0" to="224810214"/>
    <trip id="bus407" type="bus_bus" depart="3146.80" departLane="best" departSpeed="max" from="368807834" to="224810204#5"/>
    <trip id="bus410" type="bus_bus" depart="3170.00" departLane="best" departSpeed="max" from="4940771#0" to="224810250"/>
    <trip id="bus411" type="bus_bus" depart="3177.73" departLane="best" departSpeed="max" from="4940771#0" to="219564191#5"/>
    <trip id="bus413" type="bus_bus" depart="3193.19" departLane="best" departSpeed="max" from="368803034" to="224810204#5"/>
    <trip id="bus414" type="bus_bus" depart="3200.93" departLane="best" departSpeed="max" from="368807834" to="185564104"/>
    <trip id="bus415" type="bus_bus" depart="3208.66" departLane="best" departSpeed="max" from="368803034" to="185564104"/>
    <trip id="bus419" type="bus_bus" depart="3239.58" departLane="best" departSpeed="max" from="368803034" to="185564104"/>
    <trip id="bus424" type="bus_bus" depart="3278.24" departLane="best" departSpeed="max" from="4940771#0" to="219564191#5"/>
    <trip id="bus425" type="bus_bus" depart="3285.98" departLane="best" departSpeed="max" from="1023658073#0" to="727847068"/>
    <trip id="bus430" type="bus_bus" depart="3324.63" departLane="best" departSpeed="max" from="4940771#0" to="219564191#5"/>
    <trip id="bus431" type="bus_bus" depart="3332.37" departLane="best" departSpeed="max" from="368803034" to="185564104"/>
    <trip id="bus432" type="bus_bus" depart="3340.10" departLane="best" departSpeed="max" from="368807834" to="185564104"/>
    <trip id="bus434" type="bus_bus" depart="3355.56" departLane="best" departSpeed="max" from="4940771#0" to="219564191#5"/>
    <trip id="bus435" type="bus_bus" depart="3363.29" departLane="best" departSpeed="max" from="368807834" to="224810204#5"/>
    <trip id="bus438" type="bus_bus" depart="3386.49" departLane="best" departSpeed="max" from="1023658073#0" to="185564104"/>