<?xml version="1.0" encoding="UTF-8"?>

<!-- generated on 2024-04-23 19:56:29.962624 by osmWebWizard.py v1_19_0+0000-baa66a0f364
<configuration>
    <net-file value="F:\SUMO\OptimalEmission-SUMO-ReinforcementLearning\2024-04-23-19-56-25\osm.net.xml.gz"/>
    <output-trip-file value="F:\SUMO\OptimalEmission-SUMO-ReinforcementLearning\2024-04-23-19-56-25\osm.passenger.trips.xml"/>
    <route-file value="F:\SUMO\OptimalEmission-SUMO-ReinforcementLearning\2024-04-23-19-56-25\osm.passenger.rou.xml"/>
    <prefix value="veh"/>
    <trip-attributes value="departLane=&quot;best&quot;"/>
    <fringe-start-attributes value="departSpeed=&quot;max&quot;"/>
    <vehicle-class value="passenger"/>
    <lanes value="True"/>
    <fringe-factor value="5"/>
    <allow-fringe.min-length value="1000.0"/>
    <via-edge-types value="highway.motorway,highway.motorway_link,highway.trunk_link,highway.primary_link,highway.secondary_link,highway.tertiary_link"/>
    <min-distance value="300.0"/>
    <min-distance.fringe value="10.0"/>
    <remove-loops value="True"/>
    <validate value="True"/>
    <insertion-density value="12.0"/>
</configuration>
-->

<!-- generated on 2024-04-23 19:56:29 by Eclipse SUMO duarouter Version 1.19.0
<configuration xmlns:xsi="http://www.w3.org/2001/XMLSchema-instance" xsi:noNamespaceSchemaLocation="http://sumo.dlr.de/xsd/duarouterConfiguration.xsd">

    <input>
        <net-file value="F:\SUMO\OptimalEmission-SUMO-ReinforcementLearning\2024-04-23-19-56-25\osm.net.xml.gz"/>
        <route-files value="F:\SUMO\OptimalEmission-SUMO-ReinforcementLearning\2024-04-23-19-56-25\osm.passenger.trips.xml"/>
    </input>

    <output>
        <output-file value="F:\SUMO\OptimalEmission-SUMO-ReinforcementLearning\2024-04-23-19-56-25\osm.passenger.trips.xml.tmp"/>
        <alternatives-output value="NUL"/>
        <write-trips value="true"/>
    </output>

    <processing>
        <remove-loops value="true"/>
    </processing>

    <time>
        <begin value="0.0"/>
        <end value="3600.0"/>
    </time>

    <report>
        <no-warnings value="true"/>
        <ignore-errors value="true"/>
        <no-step-log value="true"/>
    </report>

</configuration>
-->

<routes xmlns:xsi="http://www.w3.org/2001/XMLSchema-instance" xsi:noNamespaceSchemaLocation="http://sumo.dlr.de/xsd/routes_file.xsd">
    <vType id="veh_passenger" vClass="passenger"/>
    <trip id="veh2" type="veh_passenger" depart="5.15" departLane="best" departSpeed="max" from="368803034" to="185564104"/>
    <trip id="veh3" type="veh_passenger" depart="7.73" departLane="best" departSpeed="max" from="1023658073#0" to="224810204#5"/>
    <trip id="veh4" type="veh_passenger" depart="10.31" departLane="best" departSpeed="max" from="1023658073#0" to="224810204#5"/>
    <trip id="veh7" type="veh_passenger" depart="18.04" departLane="best" departSpeed="max" from="727743945" to="219564191#5"/>
    <trip id="veh8" type="veh_passenger" depart="20.62" departLane="best" departSpeed="max" from="1023658073#0" to="185564104"/>
    <trip id="veh10" type="veh_passenger" depart="25.77" departLane="best" departSpeed="max" from="368807834" to="727847068"/>
    <trip id="veh11" type="veh_passenger" depart="28.35" departLane="best" departSpeed="max" from="368803034" to="224810204#5"/>
    <trip id="veh13" type="veh_passenger" depart="33.50" departLane="best" departSpeed="max" from="4940771#0" to="219564191#5"/>
    <trip id="veh15" type="veh_passenger" depart="38.66" departLane="best" departSpeed="max" from="1023658073#0" to="727847068"/>
    <trip id="veh16" type="veh_passenger" depart="41.24" departLane="best" departSpeed="max" from="1023658073#0" to="224810214"/>
    <trip id="veh19" type="veh_passenger" depart="48.97" departLane="best" departSpeed="max" from="1023658073#0" to="185564104"/>
    <trip id="veh20" type="veh_passenger" depart="51.54" departLane="best" departSpeed="max" from="1023658073#0" to="727847068"/>
    <trip id="veh21" type="veh_passenger" depart="54.12" departLane="best" departSpeed="max" from="4940771#0" to="219564191#5"/>
    <trip id="veh22" type="veh_passenger" depart="56.70" departLane="best" departSpeed="max" from="4940771#0" to="219564191#5"/>
    <trip id="veh24" type="veh_passenger" depart="61.85" departLane="best" departSpeed="max" from="4940771#0" to="219564191#5"/>
    <trip id="veh25" type="veh_passenger" depart="64.43" departLane="best" departSpeed="max" from="4940771#0" to="224810250"/>
    <trip id="veh28" type="veh_passenger" depart="72.16" departLane="best" departSpeed="max" from="1023658073#0" to="185564104"/>
    <trip id="veh29" type="veh_passenger" depart="74.74" departLane="best" departSpeed="max" from="1023658073#0" to="224810204#5"/>
    <trip id="veh31" type="veh_passenger" depart="79.89" departLane="best" departSpeed="max" from="1023658073#0" to="224810214"/>
    <trip id="veh32" type="veh_passenger" depart="82.47" departLane="best" departSpeed="max" from="1023658073#0" to="224810204#5"/>
    <trip id="veh33" type="veh_passenger" depart="85.05" departLane="best" departSpeed="max" from="1023658073#0" to="224810204#5"/>
    <trip id="veh34" type="veh_passenger" depart="87.63" departLane="best" departSpeed="max" from="368807834" to="727847068"/>
    <trip id="veh35" type="veh_passenger" depart="90.20" departLane="best" departSpeed="max" from="4940771#0" to="219564191#5"/>
    <trip id="veh37" type="veh_passenger" depart="95.36" departLane="best" departSpeed="max" from="1023658073#0" to="224810204#5"/>
    <trip id="veh38" type="veh_passenger" depart="97.93" departLane="best" departSpeed="max" from="4940771#0" to="219564191#5"/>
    <trip id="veh39" type="veh_passenger" depart="100.51" departLane="best" departSpeed="max" from="1023658073#0" to="727847068"/>
    <trip id="veh40" type="veh_passenger" depart="103.09" departLane="best" departSpeed="max" from="4940771#0" to="224810250"/>
    <trip id="veh41" type="veh_passenger" depart="105.67" departLane="best" departSpeed="max" from="1023658073#0" to="185564104"/>
    <trip id="veh43" type="veh_passenger" depart="110.82" departLane="best" departSpeed="max" from="1023658073#0" to="224810204#5"/>
    <trip id="veh44" type="veh_passenger" depart="113.40" departLane="best" departSpeed="max" from="1023658073#0" to="224810214"/>
    <trip id="veh45" type="veh_passenger" depart="115.98" departLane="best" departSpeed="max" from="4940771#0" to="219564191#5"/>
    <trip id="veh46" type="veh_passenger" depart="118.55" departLane="best" departSpeed="max" from="368807834" to="224810204#5"/>
    <trip id="veh50" type="veh_passenger" depart="128.86" departLane="best" departSpeed="max" from="368803034" to="224810204#5"/>
    <trip id="veh51" type="veh_passenger" depart="131.44" departLane="best" departSpeed="max" from="368803034" to="224810204#5"/>
    <trip id="veh52" type="veh_passenger" depart="134.02" departLane="best" departSpeed="max" from="1023658073#0" to="224810204#5"/>
    <trip id="veh53" type="veh_passenger" depart="136.59" departLane="best" departSpeed="max" from="1023658073#0" to="727847068"/>
    <trip id="veh55" type="veh_passenger" depart="141.75" departLane="best" departSpeed="max" from="1023658073#0" to="224810204#5"/>
    <trip id="veh57" type="veh_passenger" depart="146.90" departLane="best" departSpeed="max" from="4940771#0" to="219564191#5"/>
    <trip id="veh58" type="veh_passenger" depart="149.48" departLane="best" departSpeed="max" from="1023658073#0" to="224810204#5"/>
    <trip id="veh59" type="veh_passenger" depart="152.06" departLane="best" departSpeed="max" from="368803034" to="224810204#5"/>
    <trip id="veh62" type="veh_passenger" depart="159.79" departLane="best" departSpeed="max" from="4940771#0" to="219564191#5"/>
    <trip id="veh63" type="veh_passenger" depart="162.37" departLane="best" departSpeed="max" from="1023658073#0" to="224810204#5"/>
    <trip id="veh65" type="veh_passenger" depart="167.52" departLane="best" departSpeed="max" from="1023658073#0" to="727847068"/>
    <trip id="veh67" type="veh_passenger" depart="172.67" departLane="best" departSpeed="max" from="368807834" to="185564104"/>
    <trip id="veh69" type="veh_passenger" depart="177.83" departLane="best" departSpeed="max" from="4940771#0" to="219564191#5"/>
    <trip id="veh71" type="veh_passenger" depart="182.98" departLane="best" departSpeed="max" from="368803034" to="185564104"/>
    <trip id="veh72" type="veh_passenger" depart="185.56" departLane="best" departSpeed="max" from="1023658073#0" to="224810214"/>
    <trip id="veh73" type="veh_passenger" depart="188.14" departLane="best" departSpeed="max" from="368807834" to="224810204#5"/>
    <trip id="veh77" type="veh_passenger" depart="198.45" departLane="best" departSpeed="max" from="1023658073#0" to="224810204#5"/>
    <trip id="veh79" type="veh_passenger" depart="203.60" departLane="best" departSpeed="max" from="1023658073#0" to="727847068"/>
    <trip id="veh80" type="veh_passenger" depart="206.18" departLane="best" departSpeed="max" from="727743945" to="219564191#5"/>
    <trip id="veh81" type="veh_passenger" depart="208.76" departLane="best" departSpeed="max" from="368803034" to="224810204#5"/>
    <trip id="veh82" type="veh_passenger" depart="211.33" departLane="best" departSpeed="max" from="368807834" to="727847068"/>
    <trip id="veh83" type="veh_passenger" depart="213.91" departLane="best" departSpeed="max" from="1023658073#0" to="224810214"/>
    <trip id="veh84" type="veh_passenger" depart="216.49" departLane="best" departSpeed="max" from="4940771#0" to="219564191#5"/>
    <trip id="veh85" type="veh_passenger" depart="219.07" departLane="best" departSpeed="max" from="1023658073#0" to="224810214"/>
    <trip id="veh86" type="veh_passenger" depart="221.64" departLane="best" departSpeed="max" from="1023658073#0" to="224810204#5"/>
    <trip id="veh88" type="veh_passenger" depart="226.80" departLane="best" departSpeed="max" from="1023658073#0" to="727847068"/>
    <trip id="veh89" type="veh_passenger" depart="229.37" departLane="best" departSpeed="max" from="4940771#0" to="224810250"/>
    <trip id="veh94" type="veh_passenger" depart="242.26" departLane="best" departSpeed="max" from="4940771#0" to="219564191#5"/>
    <trip id="veh96" type="veh_passenger" depart="247.41" departLane="best" departSpeed="max" from="1023658073#0" to="224810204#5"/>
    <trip id="veh97" type="veh_passenger" depart="249.99" departLane="best" departSpeed="max" from="1023658073#0" to="224810204#5"/>
    <trip id="veh98" type="veh_passenger" depart="252.57" departLane="best" departSpeed="max" from="4940771#0" to="219564191#5"/>
    <trip id="veh99" type="veh_passenger" depart="255.15" departLane="best" departSpeed="max" from="4940771#0" to="219564191#5"/>
    <trip id="veh100" type="veh_passenger" depart="257.72" departLane="best" departSpeed="max" from="368807834" to="727847068"/>
    <trip id="veh103" type="veh_passenger" depart="265.46" departLane="best" departSpeed="max" from="1023658073#0" to="224810214"/>
    <trip id="veh104" type="veh_passenger" depart="268.03" departLane="best" departSpeed="max" from="4940771#0" to="219564191#5"/>
    <trip id="veh105" type="veh_passenger" depart="270.61" departLane="best" departSpeed="max" from="368803034" to="185564104"/>
    <trip id="veh109" type="veh_passenger" depart="280.92" departLane="best" departSpeed="max" from="4940771#0" to="224810250"/>
    <trip id="veh110" type="veh_passenger" depart="283.50" departLane="best" departSpeed="max" from="727743945" to="219564191#5"/>
    <trip id="veh111" type="veh_passenger" depart="286.07" departLane="best" departSpeed="max" from="4940771#0" to="224810250"/>
    <trip id="veh112" type="veh_passenger" depart="288.65" departLane="best" departSpeed="max" from="368803034" to="224810204#5"/>
    <trip id="veh113" type="veh_passenger" depart="291.23" departLane="best" departSpeed="max" from="1023658073#0" to="727847068"/>
    <trip id="veh115" type="veh_passenger" depart="296.38" departLane="best" departSpeed="max" from="4940771#0" to="224810250"/>
    <trip id="veh116" type="veh_passenger" depart="298.96" departLane="best" departSpeed="max" from="1023658073#0" to="224810214"/>
    <trip id="veh117" type="veh_passenger" depart="301.54" departLane="best" departSpeed="max" from="1023658073#0" to="727847068"/>
    <trip id="veh118" type="veh_passenger" depart="304.11" departLane="best" departSpeed="max" from="4940771#0" to="224810250"/>
    <trip id="veh119" type="veh_passenger" depart="306.69" departLane="best" departSpeed="max" from="4940771#0" to="219564191#5"/>
    <trip id="veh120" type="veh_passenger" depart="309.27" departLane="best" departSpeed="max" from="4940771#0" to="219564191#5"/>
    <trip id="veh121" type="veh_passenger" depart="311.85" departLane="best" departSpeed="max" from="4940771#0" to="224810250"/>
    <trip id="veh124" type="veh_passenger" depart="319.58" departLane="best" departSpeed="max" from="4940771#0" to="219564191#5"/>
    <trip id="veh126" type="veh_passenger" depart="324.73" departLane="best" departSpeed="max" from="727743945" to="219564191#5"/>
    <trip id="veh127" type="veh_passenger" depart="327.31" departLane="best" departSpeed="max" from="4940771#0" to="219564191#5"/>
    <trip id="veh129" type="veh_passenger" depart="332.46" departLane="best" departSpeed="max" from="727743945" to="219564191#5"/>
    <trip id="veh130" type="veh_passenger" depart="335.04" departLane="best" departSpeed="max" from="727743945" to="219564191#5"/>
    <trip id="veh131" type="veh_passenger" depart="337.62" departLane="best" departSpeed="max" from="727743945" to="219564191#5"/>
    <trip id="veh132" type="veh_passenger" depart="340.20" departLane="best" departSpeed="max" from="1023658073#0" to="224810204#5"/>
    <trip id="veh133" type="veh_passenger" depart="342.77" departLane="best" departSpeed="max" from="4940771#0" to="219564191#5"/>
    <trip id="veh134" type="veh_passenger" depart="345.35" departLane="best" departSpeed="max" from="368803034" to="224810204#5"/>
    <trip id="veh135" type="veh_passenger" depart="347.93" departLane="best" departSpeed="max" from="1023658073#0" to="224810214"/>
    <trip id="veh136" type="veh_passenger" depart="350.50" departLane="best" departSpeed="max" from="1023658073#0" to="727847068"/>
    <trip id="veh137" type="veh_passenger" depart="353.08" departLane="best" departSpeed="max" from="368803034" to="185564104"/>
    <trip id="veh138" type="veh_passenger" depart="355.66" departLane="best" departSpeed="max" from="4940771#0" to="219564191#5"/>
    <trip id="veh140" type="veh_passenger" depart="360.81" departLane="best" departSpeed="max" from="4940771#0" to="219564191#5"/>
    <trip id="veh141" type="veh_passenger" depart="363.39" departLane="best" departSpeed="max" from="1023658073#0" to="224810204#5"/>
    <trip id="veh143" type="veh_passenger" depart="368.54" departLane="best" departSpeed="max" from="1023658073#0" to="224810204#5"/>
    <trip id="veh146" type="veh_passenger" depart="376.28" departLane="best" departSpeed="max" from="1023658073#0" to="224810204#5"/>
    <trip id="veh147" type="veh_passenger" depart="378.85" departLane="best" departSpeed="max" from="368803034" to="224810204#5"/>
    <trip id="veh149" type="veh_passenger" depart="384.01" departLane="best" departSpeed="max" from="368807834" to="727847068"/>
    <trip id="veh150" type="veh_passenger" depart="386.59" departLane="best" departSpeed="max" from="4940771#0" to="219564191#5"/>
    <trip id="veh151" type="veh_passenger" depart="389.16" departLane="best" departSpeed="max" from="1023658073#0" to="224810204#5"/>
    <trip id="veh152" type="veh_passenger" depart="391.74" departLane="best" departSpeed="max" from="4940771#0" to="219564191#5"/>
    <trip id="veh154" type="veh_passenger" depart="396.89" departLane="best" departSpeed="max" from="4940771#0" to="219564191#5"/>
    <trip id="veh155" type="veh_passenger" depart="399.47" departLane="best" departSpeed="max" from="1023658073#0" to="185564104"/>
    <trip id="veh156" type="veh_passenger" depart="402.05" departLane="best" departSpeed="max" from="1023658073#0" to="224810204#5"/>
    <trip id="veh158" type="veh_passenger" depart="407.20" departLane="best" departSpeed="max" from="368803034" to="224810204#5"/>
    <trip id="veh159" type="veh_passenger" depart="409.78" departLane="best" departSpeed="max" from="1023658073#0" to="224810204#5"/>
    <trip id="veh163" type="veh_passenger" depart="420.09" departLane="best" departSpeed="max" from="1023658073#0" to="224810204#5"/>
    <trip id="veh164" type="veh_passenger" depart="422.67" departLane="best" departSpeed="max" from="1023658073#0" to="727847068"/>
    <trip id="veh165" type="veh_passenger" depart="425.24" departLane="best" departSpeed="max" from="368807834" to="185564104"/>
    <trip id="veh172" type="veh_passenger" depart="443.28" departLane="best" departSpeed="max" from="1023658073#0" to="224810204#5"/>
    <trip id="veh173" type="veh_passenger" depart="445.86" departLane="best" departSpeed="max" from="4940771#0" to="219564191#5"/>
    <trip id="veh175" type="veh_passenger" depart="451.02" departLane="best" departSpeed="max" from="1023658073#0" to="224810204#5"/>
    <trip id="veh177" type="veh_passenger" depart="456.17" departLane="best" departSpeed="max" from="368803034" to="224810204#5"/>
    <trip id="veh180" type="veh_passenger" depart="463.90" departLane="best" departSpeed="max" from="368803034" to="185564104"/>
    <trip id="veh184" type="veh_passenger" depart="474.21" departLane="best" departSpeed="max" from="368807834" to="224810204#5"/>
    <trip id="veh185" type="veh_passenger" depart="476.79" departLane="best" departSpeed="max" from="368803034" to="185564104"/>
    <trip id="veh186" type="veh_passenger" depart="479.37" departLane="best" departSpeed="max" from="368803034" to="224810204#5"/>
    <trip id="veh190" type="veh_passenger" depart="489.67" departLane="best" departSpeed="max" from="368803034" to="224810204#5"/>
    <trip id="veh191" type="veh_passenger" depart="492.25" departLane="best" departSpeed="max" from="1023658073#0" to="224810204#5"/>
    <trip id="veh192" type="veh_passenger" depart="494.83" departLane="best" departSpeed="max" from="1023658073#0" to="224810204#5"/>
    <trip id="veh193" type="veh_passenger" depart="497.41" departLane="best" departSpeed="max" from="4940771#0" to="219564191#5"/>
    <trip id="veh194" type="veh_passenger" depart="499.98" departLane="best" departSpeed="max" from="4940771#0" to="224810250"/>
    <trip id="veh195" type="veh_passenger" depart="502.56" departLane="best" departSpeed="max" from="1023658073#0" to="185564104"/>
    <trip id="veh196" type="veh_passenger" depart="505.14" departLane="best" departSpeed="max" from="1023658073#0" to="224810204#5"/>
    <trip id="veh197" type="veh_passenger" depart="507.72" departLane="best" departSpeed="max" from="727743945" to="219564191#5"/>
    <trip id="veh200" type="veh_passenger" depart="515.45" departLane="best" departSpeed="max" from="727743945" to="219564191#5"/>
    <trip id="veh201" type="veh_passenger" depart="518.02" departLane="best" departSpeed="max" from="1023658073#0" to="224810204#5"/>
    <trip id="veh202" type="veh_passenger" depart="520.60" departLane="best" departSpeed="max" from="4940771#0" to="219564191#5"/>
    <trip id="veh204" type="veh_passenger" depart="525.76" departLane="best" departSpeed="max" from="1023658073#0" to="224810204#5"/>
    <trip id="veh205" type="veh_passenger" depart="528.33" departLane="best" departSpeed="max" from="4940771#0" to="219564191#5"/>
    <trip id="veh207" type="veh_passenger" depart="533.49" departLane="best" departSpeed="max" from="1023658073#0" to="185564104"/>
    <trip id="veh208" type="veh_passenger" depart="536.06" departLane="best" departSpeed="max" from="1023658073#0" to="224810204#5"/>
    <trip id="veh209" type="veh_passenger" depart="538.64" departLane="best" departSpeed="max" from="727743945" to="219564191#5"/>
    <trip id="veh211" type="veh_passenger" depart="543.80" departLane="best" departSpeed="max" from="1023658073#0" to="224810214"/>
    <trip id="veh212" type="veh_passenger" depart="546.37" departLane="best" departSpeed="max" from="1023658073#0" to="727847068"/>
    <trip id="veh213" type="veh_passenger" depart="548.95" departLane="best" departSpeed="max" from="4940771#0" to="219564191#5"/>
    <trip id="veh216" type="veh_passenger" depart="556.68" departLane="best" departSpeed="max" from="4940771#0" to="224810250"/>
    <trip id="veh217" type="veh_passenger" depart="559.26" departLane="best" departSpeed="max" from="1023658073#0" to="727847068"/>
    <trip id="veh218" type="veh_passenger" depart="561.84" departLane="best" departSpeed="max" from="4940771#0" to="224810250"/>
    <trip id="veh221" type="veh_passenger" depart="569.57" departLane="best" departSpeed="max" from="368807834" to="224810204#5"/>
    <trip id="veh225" type="veh_passenger" depart="579.88" departLane="best" departSpeed="max" from="4940771#0" to="219564191#5"/>
    <trip id="veh226" type="veh_passenger" depart="582.46" departLane="best" departSpeed="max" from="368807834" to="224810204#5"/>
    <trip id="veh227" type="veh_passenger" depart="585.03" departLane="best" departSpeed="max" from="368803034" to="185564104"/>
    <trip id="veh228" type="veh_passenger" depart="587.61" departLane="best" departSpeed="max" from="4940771#0" to="219564191#5"/>
    <trip id="veh229" type="veh_passenger" depart="590.19" departLane="best" departSpeed="max" from="1023658073#0" to="224810214"/>
    <trip id="veh231" type="veh_passenger" depart="595.34" departLane="best" departSpeed="max" from="4940771#0" to="219564191#5"/>
    <trip id="veh232" type="veh_passenger" depart="597.92" departLane="best" departSpeed="max" from="1023658073#0" to="727847068"/>
    <trip id="veh233" type="veh_passenger" depart="600.50" departLane="best" departSpeed="max" from="1023658073#0" to="224810214"/>
    <trip id="veh234" type="veh_passenger" depart="603.07" departLane="best" departSpeed="max" from="4940771#0" to="219564191#5"/>
    <trip id="veh235" type="veh_passenger" depart="605.65" departLane="best" departSpeed="max" from="368807834" to="224810204#5"/>
    <trip id="veh236" type="veh_passenger" depart="608.23" departLane="best" departSpeed="max" from="4940771#0" to="219564191#5"/>
    <trip id="veh237" type="veh_passenger" depart="610.80" departLane="best" departSpeed="max" from="4940771#0" to="219564191#5"/>
    <trip id="veh239" type="veh_passenger" depart="615.96" departLane="best" departSpeed="max" from="1023658073#0" to="185564104"/>
    <trip id="veh242" type="veh_passenger" depart="623.69" departLane="best" departSpeed="max" from="4940771#0" to="219564191#5"/>
    <trip id="veh243" type="veh_passenger" depart="626.27" departLane="best" departSpeed="max" from="368807834" to="224810204#5"/>
    <trip id="veh244" type="veh_passenger" depart="628.85" departLane="best" departSpeed="max" from="1023658073#0" to="185564104"/>
    <trip id="veh246" type="veh_passenger" depart="634.00" departLane="best" departSpeed="max" from="1023658073#0" to="224810204#5"/>
    <trip id="veh247" type="veh_passenger" depart="636.58" departLane="best" departSpeed="max" from="4940771#0" to="219564191#5"/>
    <trip id="veh248" type="veh_passenger" depart="639.15" departLane="best" departSpeed="max" from="727743945" to="219564191#5"/>
    <trip id="veh249" type="veh_passenger" depart="641.73" departLane="best" departSpeed="max" from="4940771#0" to="219564191#5"/>
    <trip id="veh250" type="veh_passenger" depart="644.31" departLane="best" departSpeed="max" from="368807834" to="224810204#5"/>
    <trip id="veh252" type="veh_passenger" depart="649.46" departLane="best" departSpeed="max" from="727743945" to="219564191#5"/>
    <trip id="veh254" type="veh_passenger" depart="654.62" departLane="best" departSpeed="max" from="4940771#0" to="219564191#5"/>
    <trip id="veh255" type="veh_passenger" depart="657.20" departLane="best" departSpeed="max" from="1023658073#0" to="185564104"/>
    <trip id="veh256" type="veh_passenger" depart="659.77" departLane="best" departSpeed="max" from="1023658073#0" to="224810204#5"/>
    <trip id="veh257" type="veh_passenger" depart="662.35" departLane="best" departSpeed="max" from="4940771#0" to="219564191#5"/>
    <trip id="veh258" type="veh_passenger" depart="664.93" departLane="best" departSpeed="max" from="1023658073#0" to="224810214"/>
    <trip id="veh261" type="veh_passenger" depart="672.66" departLane="best" departSpeed="max" from="368803034" to="224810204#5"/>
    <trip id="veh265" type="veh_passenger" depart="682.97" departLane="best" departSpeed="max" from="368807834" to="185564104"/>
    <trip id="veh266" type="veh_passenger" depart="685.54" departLane="best" departSpeed="max" from="1023658073#0" to="224810204#5"/>
    <trip id="veh267" type="veh_passenger" depart="688.12" departLane="best" departSpeed="max" from="1023658073#0" to="727847068"/>
    <trip id="veh269" type="veh_passenger" depart="693.28" departLane="best" departSpeed="max" from="4940771#0" to="219564191#5"/>
    <trip id="veh270" type="veh_passenger" depart="695.85" departLane="best" departSpeed="max" from="1023658073#0" to="224810214"/>
    <trip id="veh271" type="veh_passenger" depart="698.43" departLane="best" departSpeed="max" from="368807834" to="224810204#5"/>
    <trip id="veh272" type="veh_passenger" depart="701.01" departLane="best" departSpeed="max" from="727743945" to="219564191#5"/>
    <trip id="veh273" type="veh_passenger" depart="703.59" departLane="best" departSpeed="max" from="368807834" to="185564104"/>
    <trip id="veh275" type="veh_passenger" depart="708.74" departLane="best" departSpeed="max" from="4940771#0" to="224810250"/>
    <trip id="veh276" type="veh_passenger" depart="711.32" departLane="best" departSpeed="max" from="1023658073#0" to="224810204#5"/>
    <trip id="veh277" type="veh_passenger" depart="713.89" departLane="best" departSpeed="max" from="1023658073#0" to="727847068"/>
    <trip id="veh279" type="veh_passenger" depart="719.05" departLane="best" departSpeed="max" from="1023658073#0" to="727847068"/>
    <trip id="veh280" type="veh_passenger" depart="721.63" departLane="best" departSpeed="max" from="368803034" to="224810204#5"/>
    <trip id="veh282" type="veh_passenger" depart="726.78" departLane="best" departSpeed="max" from="368807834" to="224810204#5"/>
    <trip id="veh283" type="veh_passenger" depart="729.36" departLane="best" departSpeed="max" from="4940771#0" to="219564191#5"/>
    <trip id="veh284" type="veh_passenger" depart="731.93" departLane="best" departSpeed="max" from="368807834" to="727847068"/>
    <trip id="veh285" type="veh_passenger" depart="734.51" departLane="best" departSpeed="max" from="368803034" to="224810204#5"/>
    <trip id="veh286" type="veh_passenger" depart="737.09" departLane="best" departSpeed="max" from="1023658073#0" to="727847068"/>
    <trip id="veh287" type="veh_passenger" depart="739.67" departLane="best" departSpeed="max" from="4940771#0" to="219564191#5"/>
    <trip id="veh288" type="veh_passenger" depart="742.24" departLane="best" departSpeed="max" from="1023658073#0" to="224810204#5"/>
    <trip id="veh289" type="veh_passenger" depart="744.82" departLane="best" departSpeed="max" from="368807834" to="185564104"/>
    <trip id="veh293" type="veh_passenger" depart="755.13" departLane="best" departSpeed="max" from="727743945" to="219564191#5"/>
    <trip id="veh296" type="veh_passenger" depart="762.86" departLane="best" departSpeed="max" from="4940771#0" to="224810250"/>
    <trip id="veh297" type="veh_passenger" depart="765.44" departLane="best" departSpeed="max" from="1023658073#0" to="224810214"/>
    <trip id="veh302" type="veh_passenger" depart="778.33" departLane="best" departSpeed="max" from="368807834" to="224810204#5"/>
    <trip id="veh304" type="veh_passenger" depart="783.48" departLane="best" departSpeed="max" from="1023658073#0" to="224810204#5"/>
    <trip id="veh305" type="veh_passenger" depart="786.06" departLane="best" departSpeed="max" from="4940771#0" to="219564191#5"/>
    <trip id="veh308" type="veh_passenger" depart="793.79" departLane="best" departSpeed="max" from="4940771#0" to="219564191#5"/>
    <trip id="veh309" type="veh_passenger" depart="796.37" departLane="best" departSpeed="max" from="4940771#0" to="224810250"/>
    <trip id="veh311" type="veh_passenger" depart="801.52" departLane="best" departSpeed="max" from="1023658073#0" to="224810204#5"/>
    <trip id="veh312" type="veh_passenger" depart="804.10" departLane="best" departSpeed="max" from="4940771#0" to="224810250"/>
    <trip id="veh313" type="veh_passenger" depart="806.67" departLane="best" departSpeed="max" from="368807834" to="224810204#5"/>
    <trip id="veh314" type="veh_passenger" depart="809.25" departLane="best" departSpeed="max" from="4940771#0" to="219564191#5"/>
    <trip id="veh315" type="veh_passenger" depart="811.83" departLane="best" departSpeed="max" from="368807834" to="727847068"/>
    <trip id="veh316" type="veh_passenger" depart="814.41" departLane="best" departSpeed="max" from="368803034" to="224810204#5"/>
    <trip id="veh317" type="veh_passenger" depart="816.98" departLane="best" departSpeed="max" from="4940771#0" to="224810250"/>
    <trip id="veh318" type="veh_passenger" depart="819.56" departLane="best" departSpeed="max" from="4940771#0" to="224810250"/>
    <trip id="veh322" type="veh_passenger" depart="829.87" departLane="best" departSpeed="max" from="1023658073#0" to="224810204#5"/>
    <trip id="veh324" type="veh_passenger" depart="835.02" departLane="best" departSpeed="max" from="1023658073#0" to="224810204#5"/>
    <trip id="veh326" type="veh_passenger" depart="840.18" departLane="best" departSpeed="max" from="1023658073#0" to="224810214"/>
    <trip id="veh327" type="veh_passenger" depart="842.76" departLane="best" departSpeed="max" from="1023658073#0" to="224810204#5"/>