<?xml version="1.0" encoding="UTF-8"?>

<!-- generated on 2024-04-23 20:09:39.189649 by osmWebWizard.py v1_19_0+0000-baa66a0f364
<configuration>
    <net-file value="F:\SUMO\OptimalEmission-SUMO-ReinforcementLearning\2024-04-23-20-09-25\osm.net.xml.gz"/>
    <output-trip-file value="F:\SUMO\OptimalEmission-SUMO-ReinforcementLearning\2024-04-23-20-09-25\osm.motorcycle.trips.xml"/>
    <route-file value="F:\SUMO\OptimalEmission-SUMO-ReinforcementLearning\2024-04-23-20-09-25\osm.motorcycle.rou.xml"/>
    <prefix value="motorcycle"/>
    <trip-attributes value="departLane=&quot;best&quot;"/>
    <fringe-start-attributes value="departSpeed=&quot;max&quot;"/>
    <vehicle-class value="motorcycle"/>
    <fringe-factor value="2"/>
    <vclass value="motorcycle"/>
    <via-edge-types value="highway.motorway,highway.motorway_link,highway.trunk_link,highway.primary_link,highway.secondary_link,highway.tertiary_link"/>
    <max-distance value="1200.0"/>
    <remove-loops value="True"/>
    <validate value="True"/>
    <insertion-density value="4.0"/>
</configuration>
-->

<!-- generated on 2024-04-23 20:09:38 by Eclipse SUMO duarouter Version 1.19.0
<configuration xmlns:xsi="http://www.w3.org/2001/XMLSchema-instance" xsi:noNamespaceSchemaLocation="http://sumo.dlr.de/xsd/duarouterConfiguration.xsd">

    <input>
        <net-file value="F:\SUMO\OptimalEmission-SUMO-ReinforcementLearning\2024-04-23-20-09-25\osm.net.xml.gz"/>
        <route-files value="F:\SUMO\OptimalEmission-SUMO-ReinforcementLearning\2024-04-23-20-09-25\osm.motorcycle.trips.xml"/>
    </input>

    <output>
        <output-file value="F:\SUMO\OptimalEmission-SUMO-ReinforcementLearning\2024-04-23-20-09-25\osm.motorcycle.trips.xml.tmp"/>
        <alternatives-output value="NUL"/>
        <write-trips value="true"/>
    </output>

    <processing>
        <remove-loops value="true"/>
    </processing>

    <time>
        <begin value="0.0"/>
        <end value="3600.0"/>
    </time>

    <report>
        <no-warnings value="true"/>
        <ignore-errors value="true"/>
        <no-step-log value="true"/>
    </report>

</configuration>
-->

<routes xmlns:xsi="http://www.w3.org/2001/XMLSchema-instance" xsi:noNamespaceSchemaLocation="http://sumo.dlr.de/xsd/routes_file.xsd">
    <vType id="motorcycle_motorcycle" vClass="motorcycle"/>
    <trip id="motorcycle0" type="motorcycle_motorcycle" depart="0.00" departLane="best" from="625272446#3" to="112539572#1"/>
    <trip id="motorcycle1" type="motorcycle_motorcycle" depart="8.37" departLane="best" from="108958407#1" to="-108958425#7"/>
    <trip id="motorcycle2" type="motorcycle_motorcycle" depart="16.73" departLane="best" from="-108958425#1" to="-306646040#0"/>
    <trip id="motorcycle3" type="motorcycle_motorcycle" depart="25.10" departLane="best" from="-288243878#2" to="1203961674#0"/>
    <trip id="motorcycle4" type="motorcycle_motorcycle" depart="33.46" departLane="best" from="-347940424#1" to="-212501033#0"/>
    <trip id="motorcycle5" type="motorcycle_motorcycle" depart="41.83" departLane="best" from="54808665#1" to="318764330"/>
    <trip id="motorcycle6" type="motorcycle_motorcycle" depart="50.20" departLane="best" from="614030864#0" to="229791484#0"/>
    <trip id="motorcycle7" type="motorcycle_motorcycle" depart="58.56" departLane="best" from="57840085#2" to="229891881#1"/>
    <trip id="motorcycle8" type="motorcycle_motorcycle" depart="66.93" departLane="best" from="-38747873#1" to="-559389089#2"/>
    <trip id="motorcycle9" type="motorcycle_motorcycle" depart="75.30" departLane="best" from="-112539524#0" to="437283621"/>
    <trip id="motorcycle10" type="motorcycle_motorcycle" depart="83.66" departLane="best" from="112539601#2" to="-55132515#1"/>
    <trip id="motorcycle11" type="motorcycle_motorcycle" depart="92.03" departLane="best" from="230145817#1" to="-807557346#1"/>
    <trip id="motorcycle13" type="motorcycle_motorcycle" depart="108.76" departLane="best" from="-391650149" to="108958432#1"/>
    <trip id="motorcycle14" type="motorcycle_motorcycle" depart="117.13" departLane="best" departSpeed="max" from="-318764331" to="785556323"/>
    <trip id="motorcycle15" type="motorcycle_motorcycle" depart="125.49" departLane="best" from="-614130409#0" to="594300971#1"/>
    <trip id="motorcycle16" type="motorcycle_motorcycle" depart="133.86" departLane="best" from="-290056905" to="108958386#5"/>
    <trip id="motorcycle17" type="motorcycle_motorcycle" depart="142.23" departLane="best" from="665672895#4" to="112539460#0"/>
    <trip id="motorcycle18" type="motorcycle_motorcycle" depart="150.59" departLane="best" from="-327301963" to="-543946832#1"/>
    <trip id="motorcycle19" type="motorcycle_motorcycle" depart="158.96" departLane="best" from="212501014#7" to="625272446#3"/>
    <trip id="motorcycle20" type="motorcycle_motorcycle" depart="167.32" departLane="best" departSpeed="max" from="99583998#1" to="-334635093#0"/>
    <trip id="motorcycle21" type="motorcycle_motorcycle" depart="175.69" departLane="best" from="-1182221803#1" to="-230145817#1"/>
    <trip id="motorcycle22" type="motorcycle_motorcycle" depart="184.06" departLane="best" from="99583998#1" to="1182221803#1"/>
    <trip id="motorcycle23" type="motorcycle_motorcycle" depart="192.42" departLane="best" from="-96559144" to="595097178#0"/>
    <trip id="motorcycle24" type="motorcycle_motorcycle" depart="200.79" departLane="best" from="108958393#4" to="367253393#0"/>
    <trip id="motorcycle25" type="motorcycle_motorcycle" depart="209.15" departLane="best" from="30581036#0" to="1187637645#1"/>
    <trip id="motorcycle26" type="motorcycle_motorcycle" depart="217.52" departLane="best" from="-1187616599#1" to="108958434#1"/>
    <trip id="motorcycle27" type="motorcycle_motorcycle" depart="225.89" departLane="best" from="614130444" to="-544131536#0"/>
    <trip id="motorcycle28" type="motorcycle_motorcycle" depart="234.25" departLane="best" from="-112539550#0" to="290056905"/>
    <trip id="motorcycle29" type="motorcycle_motorcycle" depart="242.62" departLane="best" from="665672895#1" to="-599409693#2"/>
    <trip id="motorcycle30" type="motorcycle_motorcycle" depart="250.99" departLane="best" from="-57840086#3" to="287201200"/>
    <trip id="motorcycle31" type="motorcycle_motorcycle" depart="259.35" departLane="best" from="-222282189" to="-229791483#0"/>
    <trip id="motorcycle32" type="motorcycle_motorcycle" depart="267.72" departLane="best" from="543999159#5" to="1183407077"/>
    <trip id="motorcycle33" type="motorcycle_motorcycle" depart="276.08" departLane="best" from="-101049746" to="-599405923#1"/>
    <trip id="motorcycle34" type="motorcycle_motorcycle" depart="284.45" departLane="best" from="614130424#1" to="798103336"/>
    <trip id="motorcycle35" type="motorcycle_motorcycle" depart="292.82" departLane="best" from="-112539550#1" to="112539538#1"/>
    <trip id="motorcycle36" type="motorcycle_motorcycle" depart="301.18" departLane="best" from="-108958410#0" to="-314254600#0"/>
    <trip id="motorcycle37" type="motorcycle_motorcycle" depart="309.55" departLane="best" from="-306646040#3" to="-594300966#4"/>
    <trip id="motorcycle38" type="motorcycle_motorcycle" depart="317.92" departLane="best" from="614130444" to="288979528#4"/>
    <trip id="motorcycle39" type="motorcycle_motorcycle" depart="326.28" departLane="best" from="108958428#0" to="1180474163"/>
    <trip id="motorcycle41" type="motorcycle_motorcycle" depart="343.01" departLane="best" from="-38747873#4" to="626936019#1"/>
    <trip id="motorcycle42" type="motorcycle_motorcycle" depart="351.38" departLane="best" from="599384475#1" to="-112539509#0"/>
    <trip id="motorcycle43" type="motorcycle_motorcycle" depart="359.75" departLane="best" from="-51181784#1" to="30572670#5"/>
    <trip id="motorcycle44" type="motorcycle_motorcycle" depart="368.11" departLane="best" from="323481989" to="-212501027#0"/>
    <trip id="motorcycle45" type="motorcycle_motorcycle" depart="376.48" departLane="best" from="784606884" to="212501014#4"/>
    <trip id="motorcycle46" type="motorcycle_motorcycle" depart="384.84" departLane="best" departSpeed="max" from="112539462#0" to="-544133363"/>
    <trip id="motorcycle47" type="motorcycle_motorcycle" depart="393.21" departLane="best" from="108958414#0" to="112539466#0"/>
    <trip id="motorcycle48" type="motorcycle_motorcycle" depart="401.58" departLane="best" from="367253395" to="30572672#2"/>
    <trip id="motorcycle49" type="motorcycle_motorcycle" depart="409.94" departLane="best" from="-299911597#1" to="112539435#0"/>
    <trip id="motorcycle50" type="motorcycle_motorcycle" depart="418.31" departLane="best" from="108958407#1" to="-55132515#2"/>
    <trip id="motorcycle51" type="motorcycle_motorcycle" depart="426.68" departLane="best" from="-543998080" to="673201510#1"/>
    <trip id="motorcycle52" type="motorcycle_motorcycle" depart="435.04" departLane="best" from="108958432#3" to="-595097178#1"/>
    <trip id="motorcycle53" type="motorcycle_motorcycle" depart="443.41" departLane="best" from="594300966#3" to="-287286999#0"/>
    <trip id="motorcycle54" type="motorcycle_motorcycle" depart="451.77" departLane="best" from="832679446" to="614130427#1"/>
    <trip id="motorcycle55" type="motorcycle_motorcycle" depart="460.14" departLane="best" from="544136950#1" to="544133363"/>
    <trip id="motorcycle56" type="motorcycle_motorcycle" depart="468.51" departLane="best" from="-112539403#1" to="-108958425#7"/>
    <trip id="motorcycle57" type="motorcycle_motorcycle" depart="476.87" departLane="best" from="-94161511#4" to="614130449#1"/>
    <trip id="motorcycle58" type="motorcycle_motorcycle" depart="485.24" departLane="best" from="958596933#1" to="-212501014#5"/>
    <trip id="motorcycle59" type="motorcycle_motorcycle" depart="493.61" departLane="best" from="112539460#1" to="-212501029#1"/>
    <trip id="motorcycle60" type="motorcycle_motorcycle" depart="501.97" departLane="best" from="112539553#2" to="594300966#4"/>
    <trip id="motorcycle61" type="motorcycle_motorcycle" depart="510.34" departLane="best" from="212501027#1" to="30581040"/>
    <trip id="motorcycle62" type="motorcycle_motorcycle" depart="518.70" departLane="best" from="625272446#0" to="-543946832#0"/>
    <trip id="motorcycle63" type="motorcycle_motorcycle" depart="527.07" departLane="best" from="1178060204#1" to="767602251#1"/>
    <trip id="motorcycle64" type="motorcycle_motorcycle" depart="535.44" departLane="best" from="-306646041#0" to="-349912722"/>
    <trip id="motorcycle65" type="motorcycle_motorcycle" depart="543.80" departLane="best" from="51181784#2" to="108958386#5"/>
    <trip id="motorcycle66" type="motorcycle_motorcycle" depart="552.17" departLane="best" from="594300966#2" to="543940445#1"/>
    <trip id="motorcycle67" type="motorcycle_motorcycle" depart="560.53" departLane="best" from="-112539510" to="112539447#3"/>
    <trip id="motorcycle68" type="motorcycle_motorcycle" depart="568.90" departLane="best" departSpeed="max" from="99584021#0" to="99583983#1"/>
    <trip id="motorcycle69" type="motorcycle_motorcycle" depart="577.27" departLane="best" from="-112539513#0" to="-314254600#1"/>
    <trip id="motorcycle70" type="motorcycle_motorcycle" depart="585.63" departLane="best" from="544136950#1" to="767602250#1"/>
    <trip id="motorcycle71" type="motorcycle_motorcycle" depart="594.00" departLane="best" from="614130439#0" to="614130402#1"/>
    <trip id="motorcycle72" type="motorcycle_motorcycle" depart="602.37" departLane="best" from="229703500#1" to="96559164#0"/>
    <trip id="motorcycle73" type="motorcycle_motorcycle" depart="610.73" departLane="best" from="288979528#4" to="-108958386#5"/>
    <trip id="motorcycle74" type="motorcycle_motorcycle" depart="619.10" departLane="best" from="551326650#1" to="-589937888#1"/>
    <trip id="motorcycle75" type="motorcycle_motorcycle" depart="627.46" departLane="best" from="-299911600#1" to="784606884"/>
    <trip id="motorcycle76" type="motorcycle_motorcycle" depart="635.83" departLane="best" from="-212501032#0" to="-196312638"/>
    <trip id="motorcycle77" type="motorcycle_motorcycle" depart="644.20" departLane="best" from="1181732683#1" to="1204930087#1"/>
    <trip id="motorcycle78" type="motorcycle_motorcycle" depart="652.56" departLane="best" departSpeed="max" from="-54442524" to="229748589#2"/>
    <trip id="motorcycle79" type="motorcycle_motorcycle" depart="660.93" departLane="best" from="230145817#0" to="544133363"/>
    <trip id="motorcycle80" type="motorcycle_motorcycle" depart="669.30" departLane="best" from="-112539509#1" to="626936019#1"/>
    <trip id="motorcycle81" type="motorcycle_motorcycle" depart="677.66" departLane="best" departSpeed="max" from="594300922" to="112539591#0"/>
    <trip id="motorcycle82" type="motorcycle_motorcycle" depart="686.03" departLane="best" from="108958414#0" to="-55132515#0"/>
    <trip id="motorcycle83" type="motorcycle_motorcycle" depart="694.39" departLane="best" from="108958418#10" to="-108958391#3"/>
    <trip id="motorcycle84" type="motorcycle_motorcycle" depart="702.76" departLane="best" from="-229746388" to="-212501017#0"/>
    <trip id="motorcycle85" type="motorcycle_motorcycle" depart="711.13" departLane="best" departSpeed="max" from="-589937898#2" to="625272452"/>
    <trip id="motorcycle86" type="motorcycle_motorcycle" depart="719.49" departLane="best" from="-595097178#1" to="-595097178#0"/>
    <trip id="motorcycle87" type="motorcycle_motorcycle" depart="727.86" departLane="best" from="543999159#7" to="614130427#0"/>
    <trip id="motorcycle88" type="motorcycle_motorcycle" depart="736.22" departLane="best" from="108958386#0" to="229891890#1"/>
    <trip id="motorcycle89" type="motorcycle_motorcycle" depart="744.59" departLane="best" from="-229791484#2" to="-675606355#1"/>
    <trip id="motorcycle90" type="motorcycle_motorcycle" depart="752.96" departLane="best" from="-599409693#0" to="96559145"/>
    <trip id="motorcycle91" type="motorcycle_motorcycle" depart="761.32" departLane="best" departSpeed="max" from="548768494" to="614130409#1"/>
    <trip id="motorcycle92" type="motorcycle_motorcycle" depart="769.69" departLane="best" from="-108958418#7" to="503231529"/>
    <trip id="motorcycle93" type="motorcycle_motorcycle" depart="778.06" departLane="best" from="599405923#1" to="-675606355#2"/>
    <trip id="motorcycle94" type="motorcycle_motorcycle" depart="786.42" departLane="best" from="54442526#0" to="-599384474"/>
    <trip id="motorcycle95" type="motorcycle_motorcycle" depart="794.79" departLane="best" from="112539422" to="-591040238#1"/>
    <trip id="motorcycle96" type="motorcycle_motorcycle" depart="803.15" departLane="best" from="544161333#2" to="35135431#0"/>
    <trip id="motorcycle97" type="motorcycle_motorcycle" depart="811.52" departLane="best" from="-597472240" to="599384475#0"/>
    <trip id="motorcycle98" type="motorcycle_motorcycle" depart="819.89" departLane="best" from="954702816" to="55132515#3"/>
    <trip id="motorcycle99" type="motorcycle_motorcycle" depart="828.25" departLane="best" from="96559159#2" to="1187637645#0"/>
    <trip id="motorcycle100" type="motorcycle_motorcycle" depart="836.62" departLane="best" from="785556323" to="-196312638"/>
    <trip id="motorcycle101" type="motorcycle_motorcycle" depart="844.99" departLane="best" from="96559144" to="290056905"/>
    <trip id="motorcycle102" type="motorcycle_motorcycle" depart="853.35" departLane="best" from="-1182221803#0" to="-108958434#1"/>
    <trip id="motorcycle103" type="motorcycle_motorcycle" depart="861.72" departLane="best" from="1178060204#1" to="112539580#4"/>
    <trip id="motorcycle104" type="motorcycle_motorcycle" depart="870.08" departLane="best" from="-543999159#2" to="329894418"/>
    <trip id="motorcycle105" type="motorcycle_motorcycle" depart="878.45" departLane="best" from="-499105908" to="30572670#7"/>
    <trip id="motorcycle106" type="motorcycle_motorcycle" depart="886.82" departLane="best" from="-299911601#0" to="61316856"/>
    <trip id="motorcycle107" type="motorcycle_motorcycle" depart="895.18" departLane="best" from="-594300966#0" to="591040239#0"/>
    <trip id="motorcycle108" type="motorcycle_motorcycle" depart="903.55" departLane="best" from="-589937899#1" to="-108958407#1"/>
    <trip id="motorcycle109" type="motorcycle_motorcycle" depart="911.91" departLane="best" from="785556326" to="306646040#0"/>
    <trip id="motorcycle110" type="motorcycle_motorcycle" depart="920.28" departLane="best" from="108958418#5" to="212501025#0"/>
    <trip id="motorcycle111" type="motorcycle_motorcycle" depart="928.65" departLane="best" from="288979528#5" to="112539464#4"/>
    <trip id="motorcycle112" type="motorcycle_motorcycle" depart="937.01" departLane="best" from="-112539550#0" to="367253393#0"/>
    <trip id="motorcycle113" type="motorcycle_motorcycle" depart="945.38" departLane="best" from="552831498#2" to="543940445#0"/>
    <trip id="motorcycle114" type="motorcycle_motorcycle" depart="953.75" departLane="best" from="-306646040#0" to="-108958418#7"/>
    <trip id="motorcycle115" type="motorcycle_motorcycle" depart="962.11" departLane="best" from="-543946832#3" to="112539513#0"/>
    <trip id="motorcycle116" type="motorcycle_motorcycle" depart="970.48" departLane="best" from="-108958397#1" to="230256299#1"/>
    <trip id="motorcycle117" type="motorcycle_motorcycle" depart="978.84" departLane="best" from="-112539522#0" to="533430088"/>
    <trip id="motorcycle118" type="motorcycle_motorcycle" depart="987.21" departLane="best" from="293706970" to="-108958386#0"/>
    <trip id="motorcycle119" type="motorcycle_motorcycle" depart="995.58" departLane="best" from="51181958#0" to="543998087#2"/>
    <trip id="motorcycle120" type="motorcycle_motorcycle" depart="1003.94" departLane="best" from="-1181732683#1" to="108958428#0"/>
    <trip id="motorcycle121" type="motorcycle_motorcycle" depart="1012.31" departLane="best" departSpeed="max" from="112539408" to="54442524"/>
    <trip id="motorcycle122" type="motorcycle_motorcycle" depart="1020.68" departLane="best" from="212501027#1" to="807557344#1"/>
    <trip id="motorcycle123" type="motorcycle_motorcycle" depart="1029.04" departLane="best" from="625272446#2" to="-229791484#0"/>
    <trip id="motorcycle124" type="motorcycle_motorcycle" depart="1037.41" departLane="best" from="-57840086#0" to="1203961675"/>
    <trip id="motorcycle125" type="motorcycle_motorcycle" depart="1045.77" departLane="best" from="625379819#1" to="1187637646"/>
    <trip id="motorcycle126" type="motorcycle_motorcycle" depart="1054.14" departLane="best" from="543955978#0" to="1181302196"/>
    <trip id="motorcycle127" type="motorcycle_motorcycle" depart="1062.51" departLane="best" from="229791483#2" to="-548768489"/>
    <trip id="motorcycle128" type="motorcycle_motorcycle" depart="1070.87" departLane="best" from="-112539522#0" to="552831498#0"/>
    <trip id="motorcycle129" type="motorcycle_motorcycle" depart="1079.24" departLane="best" from="1183407078" to="-212501033#0"/>
    <trip id="motorcycle130" type="motorcycle_motorcycle" depart="1087.60" departLane="best" from="323481989" to="112539466#0"/>
    <trip id="motorcycle131" type="motorcycle_motorcycle" depart="1095.97" departLane="best" from="108958386#4" to="1194708310#0"/>
    <trip id="motorcycle132" type="motorcycle_motorcycle" depart="1104.34" departLane="best" from="-108958433#0" to="-307240377#0"/>
    <trip id="motorcycle133" type="motorcycle_motorcycle" depart="1112.70" departLane="best" from="108958404#3" to="626936019#1"/>
    <trip id="motorcycle134" type="motorcycle_motorcycle" depart="1121.07" departLane="best" from="-597472240" to="543988934#0"/>
    <trip id="motorcycle135" type="motorcycle_motorcycle" depart="1129.44" departLane="best" from="-594300971#2" to="807557345#0"/>
    <trip id="motorcycle136" type="motorcycle_motorcycle" depart="1137.80" departLane="best" from="108958404#2" to="51231484"/>
    <trip id="motorcycle137" type="motorcycle_motorcycle" depart="1146.17" departLane="best" from="1187637645#1" to="229748589#0"/>
    <trip id="motorcycle138" type="motorcycle_motorcycle" depart="1154.53" departLane="best" from="-347940424#1" to="-334635093#0"/>
    <trip id="motorcycle139" type="motorcycle_motorcycle" depart="1162.90" departLane="best" from="-108958425#7" to="-108958425#4"/>
    <trip id="motorcycle140" type="motorcycle_motorcycle" depart="1171.27" departLane="best" from="61316842#0" to="306646040#3"/>
    <trip id="motorcycle141" type="motorcycle_motorcycle" depart="1179.63" departLane="best" departSpeed="max" from="112539447#0" to="212501017#0"/>
    <trip id="motorcycle142" type="motorcycle_motorcycle" depart="1188.00" departLane="best" departSpeed="max" from="229786171" to="-108958425#1"/>
    <trip id="motorcycle143" type="motorcycle_motorcycle" depart="1196.37" departLane="best" from="-212501032#2" to="112539464#0"/>
    <trip id="motorcycle144" type="motorcycle_motorcycle" depart="1204.73" departLane="best" from="-288979528#2" to="543946831"/>
    <trip id="motorcycle145" type="motorcycle_motorcycle" depart="1213.10" departLane="best" from="807557345#0" to="306646040#0"/>
    <trip id="motorcycle146" type="motorcycle_motorcycle" depart="1221.46" departLane="best" from="108958414#3" to="-229791483#0"/>
    <trip id="motorcycle147" type="motorcycle_motorcycle" depart="1229.83" departLane="best" from="314245708" to="626936019#1"/>
    <trip id="motorcycle148" type="motorcycle_motorcycle" depart="1238.20" departLane="best" from="1182221803#0" to="108958421#1"/>
    <trip id="motorcycle149" type="motorcycle_motorcycle" depart="1246.56" departLane="best" from="951738248" to="-108958391#1"/>
    <trip id="motorcycle150" type="motorcycle_motorcycle" depart="1254.93" departLane="best" from="329894421" to="-112539513#2"/>
    <trip id="motorcycle151" type="motorcycle_motorcycle" depart="1263.29" departLane="best" from="306646041#2" to="-230145817#1"/>
    <trip id="motorcycle152" type="motorcycle_motorcycle" depart="1271.66" departLane="best" from="108958418#2" to="-951738249"/>
    <trip id="motorcycle153" type="motorcycle_motorcycle" depart="1280.03" departLane="best" from="594300966#4" to="-554677553#1"/>
    <trip id="motorcycle154" type="motorcycle_motorcycle" depart="1288.39" departLane="best" from="-1182221803#1" to="112539524#1"/>
    <trip id="motorcycle155" type="motorcycle_motorcycle" depart="1296.76" departLane="best" from="-54442490#1" to="-594300966#3"/>
    <trip id="motorcycle156" type="motorcycle_motorcycle" depart="1305.13" departLane="best" from="-57840086#0" to="112539572#1"/>
    <trip id="motorcycle157" type="motorcycle_motorcycle" depart="1313.49" departLane="best" from="614130439#1" to="533430088"/>
    <trip id="motorcycle158" type="motorcycle_motorcycle" depart="1321.86" departLane="best" from="594300966#5" to="-293775376#3"/>
    <trip id="motorcycle159" type="motorcycle_motorcycle" depart="1330.22" departLane="best" departSpeed="max" from="-318764331" to="54442504"/>
    <trip id="motorcycle160" type="motorcycle_motorcycle" depart="1338.59" departLane="best" from="614030864#1" to="614130404"/>
    <trip id="motorcycle161" type="motorcycle_motorcycle" depart="1346.96" departLane="best" from="314245709#2" to="-551311088"/>
    <trip id="motorcycle162" type="motorcycle_motorcycle" depart="1355.32" departLane="best" from="-108958391#3" to="798103337"/>
    <trip id="motorcycle163" type="motorcycle_motorcycle" depart="1363.69" departLane="best" from="-112539509#1" to="543946832#5"/>
    <trip id="motorcycle164" type="motorcycle_motorcycle" depart="1372.06" departLane="best" from="1181732668#1" to="108958428#0"/>
    <trip id="motorcycle165" type="motorcycle_motorcycle" depart="1380.42" departLane="best" from="51181767#0" to="61316862"/>
    <trip id="motorcycle166" type="motorcycle_motorcycle" depart="1388.79" departLane="best" from="314246465#0" to="-54442526#0"/>
    <trip id="motorcycle167" type="motorcycle_motorcycle" depart="1397.15" departLane="best" from="-299911601#0" to="212501013#2"/>
    <trip id="motorcycle168" type="motorcycle_motorcycle" depart="1405.52" departLane="best" from="293706970" to="-327301962#1"/>
    <trip id="motorcycle169" type="motorcycle_motorcycle" depart="1413.89" departLane="best" from="112539466#5" to="38747872#0"/>
    <trip id="motorcycle170" type="motorcycle_motorcycle" depart="1422.25" departLane="best" from="96559152#1" to="1181732669#0"/>
    <trip id="motorcycle171" type="motorcycle_motorcycle" depart="1430.62" departLane="best" from="551326650#0" to="-1180393382#1"/>
    <trip id="motorcycle172" type="motorcycle_motorcycle" depart="1438.98" departLane="best" from="-299911601#3" to="-35135431#0"/>
    <trip id="motorcycle173" type="motorcycle_motorcycle" depart="1447.35" departLane="best" from="543955972#1" to="108958397#2"/>
    <trip id="motorcycle174" type="motorcycle_motorcycle" depart="1455.72" departLane="best" from="1181732683#1" to="-548768489"/>
    <trip id="motorcycle175" type="motorcycle_motorcycle" depart="1464.08" departLane="best" from="-314245702" to="-212501016#0"/>
    <trip id="motorcycle176" type="motorcycle_motorcycle" depart="1472.45" departLane="best" from="112539447#3" to="112539395#1"/>
    <trip id="motorcycle177" type="motorcycle_motorcycle" depart="1480.82" departLane="best" from="785556327" to="-112539513#3"/>
    <trip id="motorcycle178" type="motorcycle_motorcycle" depart="1489.18" departLane="best" from="552106644#0" to="-108958395#1"/>
    <trip id="motorcycle179" type="motorcycle_motorcycle" depart="1497.55" departLane="best" from="99583983#0" to="212501013#1"/>
    <trip id="motorcycle180" type="motorcycle_motorcycle" depart="1505.91" departLane="best" from="-108958432#2" to="594300975"/>
    <trip id="motorcycle181" type="motorcycle_motorcycle" depart="1514.28" departLane="best" from="99583975#0" to="-591040238#1"/>
    <trip id="motorcycle182" type="motorcycle_motorcycle" depart="1522.65" departLane="best" departSpeed="max" from="229780492" to="229771985"/>
    <trip id="motorcycle183" type="motorcycle_motorcycle" depart="1531.01" departLane="best" from="479747947" to="798103337"/>
    <trip id="motorcycle184" type="motorcycle_motorcycle" depart="1539.38" departLane="best" from="293777632" to="-229791484#2"/>
    <trip id="motorcycle186" type="motorcycle_motorcycle" depart="1556.11" departLane="best" departSpeed="max" from="212501027#0" to="57840085#1"/>
    <trip id="motorcycle187" type="motorcycle_motorcycle" depart="1564.48" departLane="best" from="-474645854" to="-329719849"/>
    <trip id="motorcycle188" type="motorcycle_motorcycle" depart="1572.84" departLane="best" from="-306646040#4" to="673201510#2"/>
    <trip id="motorcycle189" type="motorcycle_motorcycle" depart="1581.21" departLane="best" from="-299911597#0" to="767602251#0"/>
    <trip id="motorcycle190" type="motorcycle_motorcycle" depart="1589.58" departLane="best" from="108958414#1" to="1194708311#0"/>
    <trip id="motorcycle192" type="motorcycle_motorcycle" depart="1606.31" departLane="best" from="559389089#2" to="-112539509#0"/>
    <trip id="motorcycle193" type="motorcycle_motorcycle" depart="1614.67" departLane="best" from="231619071#0" to="-594300922"/>
    <trip id="motorcycle194" type="motorcycle_motorcycle" depart="1623.04" departLane="best" from="-552831498#2" to="-212501014#5"/>
    <trip id="motorcycle195" type="motorcycle_motorcycle" depart="1631.41" departLane="best" from="112539516#0" to="-112539550#0"/>
    <trip id="motorcycle196" type="motorcycle_motorcycle" depart="1639.77" departLane="best" from="-108958434#1" to="108958432#5"/>
    <trip id="motorcycle197" type="motorcycle_motorcycle" depart="1648.14" departLane="best" from="-594300971#1" to="-543957814#0"/>
    <trip id="motorcycle198" type="motorcycle_motorcycle" depart="1656.51" departLane="best" from="807557345#1" to="99584021#1"/>
    <trip id="motorcycle199" type="motorcycle_motorcycle" depart="1664.87" departLane="best" from="108958434#3" to="543946832#3"/>
    <trip id="motorcycle200" type="motorcycle_motorcycle" depart="1673.24" departLane="best" departSpeed="max" from="666541152#0" to="-293775376#3"/>
    <trip id="motorcycle201" type="motorcycle_motorcycle" depart="1681.60" departLane="best" from="-625379818" to="-614030864#1"/>
    <trip id="motorcycle202" type="motorcycle_motorcycle" depart="1689.97" departLane="best" from="-599384475#0" to="314245709#2"/>
    <trip id="motorcycle203" type="motorcycle_motorcycle" depart="1698.34" departLane="best" from="552831498#0" to="-785556327"/>
    <trip id="motorcycle204" type="motorcycle_motorcycle" depart="1706.70" departLane="best" from="-55132515#1" to="1203961697#1"/>
    <trip id="motorcycle205" type="motorcycle_motorcycle" depart="1715.07" departLane="best" from="112539403#1" to="594300971#0"/>
    <trip id="motorcycle206" type="motorcycle_motorcycle" depart="1723.44" departLane="best" from="107683789" to="1177906441#1"/>
    <trip id="motorcycle207" type="motorcycle_motorcycle" depart="1731.80" departLane="best" from="1183407096#0" to="-108958414#3"/>
    <trip id="motorcycle208" type="motorcycle_motorcycle" depart="1740.17" departLane="best" from="543940444" to="230087204"/>
    <trip id="motorcycle211" type="motorcycle_motorcycle" depart="1765.27" departLane="best" from="108958428#0" to="318764330"/>
    <trip id="motorcycle212" type="motorcycle_motorcycle" depart="1773.63" departLane="best" from="-212501014#4" to="958596933#1"/>
    <trip id="motorcycle213" type="motorcycle_motorcycle" depart="1782.00" departLane="best" departSpeed="max" from="-229900391" to="1203961697#2"/>
    <trip id="motorcycle214" type="motorcycle_motorcycle" depart="1790.36" departLane="best" from="99583980#1" to="643836493#3"/>
    <trip id="motorcycle215" type="motorcycle_motorcycle" depart="1798.73" departLane="best" from="-57840086#2" to="112539563#0"/>
    <trip id="motorcycle216" type="motorcycle_motorcycle" depart="1807.10" departLane="best" from="-334635093#1" to="112539591#1"/>