<?xml version="1.0" encoding="UTF-8"?>

<!-- generated on 2024-04-23 20:09:36.357772 by osmWebWizard.py v1_19_0+0000-baa66a0f364
<configuration>
    <net-file value="F:\SUMO\OptimalEmission-SUMO-ReinforcementLearning\2024-04-23-20-09-25\osm.net.xml.gz"/>
    <output-trip-file value="F:\SUMO\OptimalEmission-SUMO-ReinforcementLearning\2024-04-23-20-09-25\osm.bus.trips.xml"/>
    <route-file value="F:\SUMO\OptimalEmission-SUMO-ReinforcementLearning\2024-04-23-20-09-25\osm.bus.rou.xml"/>
    <prefix value="bus"/>
    <trip-attributes value="departLane=&quot;best&quot;"/>
    <fringe-start-attributes value="departSpeed=&quot;max&quot;"/>
    <vehicle-class value="bus"/>
    <fringe-factor value="5"/>
    <vclass value="bus"/>
    <via-edge-types value="highway.motorway,highway.motorway_link,highway.trunk_link,highway.primary_link,highway.secondary_link,highway.tertiary_link"/>
    <min-distance value="600.0"/>
    <min-distance.fringe value="10.0"/>
    <remove-loops value="True"/>
    <validate value="True"/>
    <insertion-density value="4.0"/>
</configuration>
-->

<!-- generated on 2024-04-23 20:09:35 by Eclipse SUMO duarouter Version 1.19.0
<configuration xmlns:xsi="http://www.w3.org/2001/XMLSchema-instance" xsi:noNamespaceSchemaLocation="http://sumo.dlr.de/xsd/duarouterConfiguration.xsd">

    <input>
        <net-file value="F:\SUMO\OptimalEmission-SUMO-ReinforcementLearning\2024-04-23-20-09-25\osm.net.xml.gz"/>
        <route-files value="F:\SUMO\OptimalEmission-SUMO-ReinforcementLearning\2024-04-23-20-09-25\osm.bus.trips.xml"/>
    </input>

    <output>
        <output-file value="F:\SUMO\OptimalEmission-SUMO-ReinforcementLearning\2024-04-23-20-09-25\osm.bus.trips.xml.tmp"/>
        <alternatives-output value="NUL"/>
        <write-trips value="true"/>
    </output>

    <processing>
        <remove-loops value="true"/>
    </processing>

    <time>
        <begin value="0.0"/>
        <end value="3600.0"/>
    </time>

    <report>
        <no-warnings value="true"/>
        <ignore-errors value="true"/>
        <no-step-log value="true"/>
    </report>

</configuration>
-->

<routes xmlns:xsi="http://www.w3.org/2001/XMLSchema-instance" xsi:noNamespaceSchemaLocation="http://sumo.dlr.de/xsd/routes_file.xsd">
    <vType id="bus_bus" vClass="bus"/>
    <trip id="bus0" type="bus_bus" depart="0.00" departLane="best" departSpeed="max" from="229791483#0" to="-108958425#1"/>
    <trip id="bus2" type="bus_bus" depart="16.90" departLane="best" from="625272428#0" to="-112539580#1"/>
    <trip id="bus3" type="bus_bus" depart="25.35" departLane="best" departSpeed="max" from="-318764331" to="112539572#0"/>
    <trip id="bus4" type="bus_bus" depart="33.81" departLane="best" from="108958425#13" to="-304002653"/>
    <trip id="bus6" type="bus_bus" depart="50.71" departLane="best" departSpeed="max" from="-318764331" to="212501032#3"/>
    <trip id="bus7" type="bus_bus" depart="59.16" departLane="best" from="595097178#0" to="-229780492"/>
    <trip id="bus8" type="bus_bus" depart="67.61" departLane="best" from="951738250" to="-614030864#1"/>
    <trip id="bus9" type="bus_bus" depart="76.06" departLane="best" departSpeed="max" from="-112539562" to="-112539602#0"/>
    <trip id="bus10" type="bus_bus" depart="84.52" departLane="best" from="-589937898#0" to="-212501033#2"/>
    <trip id="bus11" type="bus_bus" depart="92.97" departLane="best" from="54442488#2" to="38747872#0"/>
    <trip id="bus12" type="bus_bus" depart="101.42" departLane="best" from="1178060204#1" to="951738257#2"/>
    <trip id="bus13" type="bus_bus" depart="109.87" departLane="best" from="552106643#0" to="229891881#1"/>
    <trip id="bus14" type="bus_bus" depart="118.32" departLane="best" from="595097178#1" to="212501023#1"/>
    <trip id="bus15" type="bus_bus" depart="126.77" departLane="best" from="-306646040#3" to="-112539435#1"/>
    <trip id="bus16" type="bus_bus" depart="135.23" departLane="best" from="-347940424#0" to="552106637"/>
    <trip id="bus17" type="bus_bus" depart="143.68" departLane="best" from="-112539524#0" to="334635093#0"/>
    <trip id="bus18" type="bus_bus" depart="152.13" departLane="best" from="-112539585#0" to="54442490#2"/>
    <trip id="bus19" type="bus_bus" depart="160.58" departLane="best" departSpeed="max" from="229786171" to="-785556328"/>
    <trip id="bus20" type="bus_bus" depart="169.03" departLane="best" from="-665672895#5" to="30581035#1"/>
    <trip id="bus21" type="bus_bus" depart="177.48" departLane="best" departSpeed="max" from="-544119517#1" to="-675606355#0"/>
    <trip id="bus23" type="bus_bus" depart="194.39" departLane="best" departSpeed="max" from="-230256299#2" to="38747872#0"/>
    <trip id="bus24" type="bus_bus" depart="202.84" departLane="best" departSpeed="max" from="-230087204" to="-96559159#1"/>
    <trip id="bus25" type="bus_bus" depart="211.29" departLane="best" from="-99583975#0" to="287198756#2"/>
    <trip id="bus26" type="bus_bus" depart="219.74" departLane="best" from="589922569#0" to="-543999159#1"/>
    <trip id="bus27" type="bus_bus" depart="228.19" departLane="best" from="347940424#2" to="-108958432#4"/>
    <trip id="bus28" type="bus_bus" depart="236.65" departLane="best" departSpeed="max" from="-589937898#2" to="-544113736"/>
    <trip id="bus29" type="bus_bus" depart="245.10" departLane="best" from="-306646040#5" to="767602254#0"/>
    <trip id="bus30" type="bus_bus" depart="253.55" departLane="best" from="-61316862" to="-594300966#2"/>
    <trip id="bus31" type="bus_bus" depart="262.00" departLane="best" from="231619071#0" to="108958386#1"/>
    <trip id="bus32" type="bus_bus" depart="270.45" departLane="best" from="544113735" to="499105908"/>
    <trip id="bus33" type="bus_bus" depart="278.90" departLane="best" departSpeed="max" from="1188609351#0" to="-543999159#1"/>
    <trip id="bus34" type="bus_bus" depart="287.36" departLane="best" from="169677529#2" to="614130439#0"/>
    <trip id="bus35" type="bus_bus" depart="295.81" departLane="best" departSpeed="max" from="-963631393" to="-307240377#0"/>
    <trip id="bus36" type="bus_bus" depart="304.26" departLane="best" departSpeed="max" from="99584021#0" to="112539580#4"/>
    <trip id="bus37" type="bus_bus" depart="312.71" departLane="best" departSpeed="max" from="544113736" to="108958428#0"/>
    <trip id="bus38" type="bus_bus" depart="321.16" departLane="best" from="-112539464#4" to="96559164#0"/>
    <trip id="bus39" type="bus_bus" depart="329.61" departLane="best" departSpeed="max" from="99584021#0" to="1181732669#1"/>
    <trip id="bus40" type="bus_bus" depart="338.07" departLane="best" departSpeed="max" from="96559148" to="594300966#2"/>
    <trip id="bus42" type="bus_bus" depart="354.97" departLane="best" departSpeed="max" from="304002653" to="-1187616599#1"/>
    <trip id="bus43" type="bus_bus" depart="363.42" departLane="best" departSpeed="max" from="-544119517#1" to="-287200628#0"/>
    <trip id="bus44" type="bus_bus" depart="371.87" departLane="best" from="-1181732683#0" to="112539384#2"/>
    <trip id="bus46" type="bus_bus" depart="388.78" departLane="best" from="665672895#0" to="594300975"/>
    <trip id="bus47" type="bus_bus" depart="397.23" departLane="best" from="-559389089#0" to="287198754"/>
    <trip id="bus48" type="bus_bus" depart="405.68" departLane="best" departSpeed="max" from="543957814#0" to="1181732683#1"/>
    <trip id="bus49" type="bus_bus" depart="414.13" departLane="best" from="101049746" to="-599384475#1"/>
    <trip id="bus50" type="bus_bus" depart="422.58" departLane="best" from="614030864#1" to="57840085#1"/>
    <trip id="bus51" type="bus_bus" depart="431.03" departLane="best" departSpeed="max" from="-57840086#4" to="-112539462#0"/>
    <trip id="bus52" type="bus_bus" depart="439.49" departLane="best" from="614030864#0" to="784606886"/>
    <trip id="bus53" type="bus_bus" depart="447.94" departLane="best" departSpeed="max" from="-112539548#1" to="112539538#0"/>
    <trip id="bus54" type="bus_bus" depart="456.39" departLane="best" from="-543940440#1" to="212501014#3"/>
    <trip id="bus55" type="bus_bus" depart="464.84" departLane="best" from="-112539435#1" to="1203961674#2"/>
    <trip id="bus56" type="bus_bus" depart="473.29" departLane="best" from="544113735" to="594300975"/>
    <trip id="bus57" type="bus_bus" depart="481.74" departLane="best" from="108958386#1" to="306646040#1"/>
    <trip id="bus58" type="bus_bus" depart="490.20" departLane="best" from="-299911600#1" to="-594300922"/>
    <trip id="bus59" type="bus_bus" depart="498.65" departLane="best" from="99584009" to="288243878#3"/>
    <trip id="bus60" type="bus_bus" depart="507.10" departLane="best" from="108958414#0" to="-112539602#1"/>
    <trip id="bus61" type="bus_bus" depart="515.55" departLane="best" from="-212501013#2" to="-314254600#0"/>
    <trip id="bus62" type="bus_bus" depart="524.00" departLane="best" departSpeed="max" from="-594300975" to="212501032#3"/>
    <trip id="bus63" type="bus_bus" depart="532.45" departLane="best" from="-349912720" to="-307240378#0"/>
    <trip id="bus64" type="bus_bus" depart="540.91" departLane="best" from="-112539509#1" to="-230145817#1"/>
    <trip id="bus65" type="bus_bus" depart="549.36" departLane="best" from="347940424#2" to="625272446#0"/>
    <trip id="bus66" type="bus_bus" depart="557.81" departLane="best" from="-594300971#2" to="-112539509#0"/>
    <trip id="bus67" type="bus_bus" depart="566.26" departLane="best" from="-474645853" to="-30572307#1"/>
    <trip id="bus68" type="bus_bus" depart="574.71" departLane="best" from="307240378#1" to="-212501016#1"/>
    <trip id="bus69" type="bus_bus" depart="583.16" departLane="best" from="767602254#1" to="212501014#5"/>
    <trip id="bus70" type="bus_bus" depart="591.62" departLane="best" from="112539418#1" to="544119517#1"/>
    <trip id="bus72" type="bus_bus" depart="608.52" departLane="best" from="-112539572#0" to="108958434#3"/>
    <trip id="bus73" type="bus_bus" depart="616.97" departLane="best" from="108958386#1" to="112539466#1"/>
    <trip id="bus74" type="bus_bus" depart="625.42" departLane="best" from="329894418" to="30572520#0"/>
    <trip id="bus75" type="bus_bus" depart="633.87" departLane="best" from="96559163#1" to="-112539602#0"/>
    <trip id="bus77" type="bus_bus" depart="650.78" departLane="best" from="288979528#2" to="112539435#3"/>
    <trip id="bus78" type="bus_bus" depart="659.23" departLane="best" from="107683791#2" to="-54442526#0"/>
    <trip id="bus79" type="bus_bus" depart="667.68" departLane="best" from="-543946832#1" to="665672894"/>
    <trip id="bus80" type="bus_bus" depart="676.13" departLane="best" from="108958418#7" to="594300966#2"/>
    <trip id="bus81" type="bus_bus" depart="684.58" departLane="best" departSpeed="max" from="1181995529" to="-112539447#0"/>
    <trip id="bus82" type="bus_bus" depart="693.04" departLane="best" departSpeed="max" from="99584021#0" to="57840086#3"/>
    <trip id="bus83" type="bus_bus" depart="701.49" departLane="best" from="96559145" to="665672895#3"/>
    <trip id="bus85" type="bus_bus" depart="718.39" departLane="best" from="-767602253" to="-96559159#2"/>
    <trip id="bus86" type="bus_bus" depart="726.84" departLane="best" from="951738248" to="99583980#2"/>
    <trip id="bus87" type="bus_bus" depart="735.29" departLane="best" from="-229791484#0" to="-57840085#2"/>
    <trip id="bus88" type="bus_bus" depart="743.75" departLane="best" from="96559145" to="212501024#0"/>
    <trip id="bus89" type="bus_bus" depart="752.20" departLane="best" from="1181302196" to="1187637646"/>
    <trip id="bus90" type="bus_bus" depart="760.65" departLane="best" departSpeed="max" from="112539509#0" to="589937899#2"/>
    <trip id="bus92" type="bus_bus" depart="777.55" departLane="best" from="-212501014#0" to="30572670#3"/>
    <trip id="bus93" type="bus_bus" depart="786.00" departLane="best" from="618039930" to="-479747946#0"/>
    <trip id="bus94" type="bus_bus" depart="794.46" departLane="best" from="-212501013#2" to="229891890#1"/>
    <trip id="bus97" type="bus_bus" depart="819.81" departLane="best" from="30572307#1" to="347940424#1"/>
    <trip id="bus98" type="bus_bus" depart="828.26" departLane="best" from="-474645854" to="108958386#4"/>
    <trip id="bus99" type="bus_bus" depart="836.71" departLane="best" departSpeed="max" from="293775376#0" to="57840086#3"/>
    <trip id="bus100" type="bus_bus" depart="845.17" departLane="best" departSpeed="max" from="-589937898#2" to="533430088"/>
    <trip id="bus102" type="bus_bus" depart="862.07" departLane="best" from="614130444" to="-599405923#1"/>
    <trip id="bus103" type="bus_bus" depart="870.52" departLane="best" from="559389089#1" to="318764330"/>
    <trip id="bus104" type="bus_bus" depart="878.97" departLane="best" from="212501029#1" to="614130427#1"/>
    <trip id="bus105" type="bus_bus" depart="887.42" departLane="best" from="230149325" to="-108958386#4"/>
    <trip id="bus106" type="bus_bus" depart="895.88" departLane="best" from="-288243878#1" to="681561326"/>
    <trip id="bus107" type="bus_bus" depart="904.33" departLane="best" from="544136950#1" to="229751632"/>
    <trip id="bus108" type="bus_bus" depart="912.78" departLane="best" from="314246464" to="-30572307#0"/>
    <trip id="bus109" type="bus_bus" depart="921.23" departLane="best" departSpeed="max" from="229780492" to="543999159#2"/>
    <trip id="bus110" type="bus_bus" depart="929.68" departLane="best" departSpeed="max" from="112539462#0" to="625272428#1"/>
    <trip id="bus111" type="bus_bus" depart="938.13" departLane="best" from="-589937891#1" to="112539591#0"/>
    <trip id="bus113" type="bus_bus" depart="955.04" departLane="best" from="367421825#1" to="1203961697#0"/>
    <trip id="bus114" type="bus_bus" depart="963.49" departLane="best" from="-112539516#0" to="-61316842#1"/>
    <trip id="bus115" type="bus_bus" depart="971.94" departLane="best" from="627043084" to="1194708309"/>
    <trip id="bus116" type="bus_bus" depart="980.39" departLane="best" from="-559389089#2" to="-212501027#1"/>
    <trip id="bus117" type="bus_bus" depart="988.84" departLane="best" departSpeed="max" from="-57840086#4" to="614130439#1"/>
    <trip id="bus118" type="bus_bus" depart="997.30" departLane="best" from="544128878#0" to="-594300966#1"/>
    <trip id="bus119" type="bus_bus" depart="1005.75" departLane="best" from="-543946832#1" to="-1181732683#0"/>
    <trip id="bus120" type="bus_bus" depart="1014.20" departLane="best" departSpeed="max" from="-543957814#0" to="-312840489"/>
    <trip id="bus121" type="bus_bus" depart="1022.65" departLane="best" from="-96559164#2" to="229900391"/>
    <trip id="bus122" type="bus_bus" depart="1031.10" departLane="best" from="599384475#0" to="958596933#0"/>
    <trip id="bus123" type="bus_bus" depart="1039.55" departLane="best" from="54442526#0" to="599409693#2"/>
    <trip id="bus124" type="bus_bus" depart="1048.01" departLane="best" from="108958421#1" to="465858406"/>
    <trip id="bus125" type="bus_bus" depart="1056.46" departLane="best" departSpeed="max" from="-594300969#1" to="-673201517#1"/>
    <trip id="bus126" type="bus_bus" depart="1064.91" departLane="best" from="544161331#0" to="594300969#1"/>
    <trip id="bus127" type="bus_bus" depart="1073.36" departLane="best" from="54442526#0" to="-544113735"/>
    <trip id="bus128" type="bus_bus" depart="1081.81" departLane="best" from="-543999159#3" to="-1182449364"/>
    <trip id="bus129" type="bus_bus" depart="1090.26" departLane="best" from="599409693#1" to="591040239#0"/>
    <trip id="bus130" type="bus_bus" depart="1098.72" departLane="best" from="-544121190#1" to="-314254600#1"/>
    <trip id="bus131" type="bus_bus" depart="1107.17" departLane="best" from="108958418#7" to="299911597#1"/>
    <trip id="bus132" type="bus_bus" depart="1115.62" departLane="best" from="958596934#1" to="-54442526#0"/>
    <trip id="bus133" type="bus_bus" depart="1124.07" departLane="best" departSpeed="max" from="229791483#0" to="-108958393#1"/>
    <trip id="bus134" type="bus_bus" depart="1132.52" departLane="best" from="96559159#1" to="-1183407096#0"/>
    <trip id="bus135" type="bus_bus" depart="1140.97" departLane="best" from="784606886" to="-1188609351#0"/>
    <trip id="bus136" type="bus_bus" depart="1149.43" departLane="best" departSpeed="max" from="96559148" to="543955972#1"/>
    <trip id="bus137" type="bus_bus" depart="1157.88" departLane="best" from="951738261" to="543999159#6"/>
    <trip id="bus138" type="bus_bus" depart="1166.33" departLane="best" from="112539602#4" to="112539384#2"/>
    <trip id="bus139" type="bus_bus" depart="1174.78" departLane="best" from="329894418" to="-594300966#1"/>
    <trip id="bus140" type="bus_bus" depart="1183.23" departLane="best" from="212501025#4" to="112539585#1"/>
    <trip id="bus141" type="bus_bus" depart="1191.68" departLane="best" from="785556328" to="212501023#1"/>
    <trip id="bus142" type="bus_bus" depart="1200.14" departLane="best" from="-543998080" to="327301956#3"/>
    <trip id="bus144" type="bus_bus" depart="1217.04" departLane="best" departSpeed="max" from="380428218" to="30572520#0"/>
    <trip id="bus145" type="bus_bus" depart="1225.49" departLane="best" from="627377409#0" to="-112539509#0"/>
    <trip id="bus146" type="bus_bus" depart="1233.94" departLane="best" from="-288243878#2" to="599409693#0"/>
    <trip id="bus147" type="bus_bus" depart="1242.39" departLane="best" from="314257861#1" to="57840086#3"/>
    <trip id="bus148" type="bus_bus" depart="1250.85" departLane="best" from="587887916" to="-108958409#1"/>
    <trip id="bus149" type="bus_bus" depart="1259.30" departLane="best" departSpeed="max" from="-963631393" to="-57840085#1"/>
    <trip id="bus150" type="bus_bus" depart="1267.75" departLane="best" from="-627039424#0" to="229891881#1"/>
    <trip id="bus151" type="bus_bus" depart="1276.20" departLane="best" from="-57840085#1" to="1194708311#0"/>
    <trip id="bus152" type="bus_bus" depart="1284.65" departLane="best" from="101049746" to="-551326650#0"/>
    <trip id="bus153" type="bus_bus" depart="1293.10" departLane="best" from="112539422" to="614130449#1"/>
    <trip id="bus154" type="bus_bus" depart="1301.56" departLane="best" from="544128878#0" to="230149325"/>
    <trip id="bus155" type="bus_bus" depart="1310.01" departLane="best" departSpeed="max" from="-112539548#1" to="112539593"/>
    <trip id="bus156" type="bus_bus" depart="1318.46" departLane="best" departSpeed="max" from="548768494" to="51231484"/>
    <trip id="bus157" type="bus_bus" depart="1326.91" departLane="best" departSpeed="max" from="293775376#0" to="-314254600#0"/>
    <trip id="bus158" type="bus_bus" depart="1335.36" departLane="best" from="-299911597#0" to="-108958421#1"/>
    <trip id="bus159" type="bus_bus" depart="1343.81" departLane="best" from="591040238#1" to="-112539509#1"/>
    <trip id="bus160" type="bus_bus" depart="1352.27" departLane="best" departSpeed="max" from="99583998#1" to="230087204"/>
    <trip id="bus161" type="bus_bus" depart="1360.72" departLane="best" from="293775376#3" to="314245708"/>
    <trip id="bus162" type="bus_bus" depart="1369.17" departLane="best" from="112539464#5" to="437283621"/>
    <trip id="bus163" type="bus_bus" depart="1377.62" departLane="best" from="231619071#1" to="-107683791#2"/>
    <trip id="bus164" type="bus_bus" depart="1386.07" departLane="best" from="474645854" to="626936019#1"/>
    <trip id="bus165" type="bus_bus" depart="1394.52" departLane="best" from="-112539601#1" to="108958432#1"/>
    <trip id="bus166" type="bus_bus" depart="1402.98" departLane="best" departSpeed="max" from="-287201199" to="807557345#0"/>
    <trip id="bus167" type="bus_bus" depart="1411.43" departLane="best" from="230145817#1" to="-112539447#0"/>
    <trip id="bus168" type="bus_bus" depart="1419.88" departLane="best" from="108958432#6" to="54442497#1"/>
    <trip id="bus169" type="bus_bus" depart="1428.33" departLane="best" from="288979528#4" to="96559163#1"/>
    <trip id="bus170" type="bus_bus" depart="1436.78" departLane="best" from="-212501014#1" to="-785556327"/>
    <trip id="bus172" type="bus_bus" depart="1453.69" departLane="best" from="552831498#0" to="1194708311#0"/>
    <trip id="bus173" type="bus_bus" depart="1462.14" departLane="best" from="625374832#0" to="503231530#2"/>
    <trip id="bus174" type="bus_bus" depart="1470.59" departLane="best" from="112539435#0" to="-543957814#0"/>
    <trip id="bus175" type="bus_bus" depart="1479.04" departLane="best" from="-543940440#1" to="1180393382#1"/>
    <trip id="bus176" type="bus_bus" depart="1487.49" departLane="best" from="229748589#1" to="-544136950#1"/>
    <trip id="bus177" type="bus_bus" depart="1495.94" departLane="best" departSpeed="max" from="-112539522#1" to="-55132515#3"/>
    <trip id="bus178" type="bus_bus" depart="1504.40" departLane="best" from="1181302194#0" to="-212501027#0"/>
    <trip id="bus179" type="bus_bus" depart="1512.85" departLane="best" departSpeed="max" from="-367421824" to="314244942#6"/>
    <trip id="bus180" type="bus_bus" depart="1521.30" departLane="best" from="-99583966#1" to="1190360113#1"/>
    <trip id="bus181" type="bus_bus" depart="1529.75" departLane="best" from="101049746" to="-30572422"/>
    <trip id="bus182" type="bus_bus" depart="1538.20" departLane="best" from="107683789" to="625272428#1"/>
    <trip id="bus183" type="bus_bus" depart="1546.65" departLane="best" from="169677529#1" to="314245707"/>
    <trip id="bus184" type="bus_bus" depart="1555.11" departLane="best" from="594300966#4" to="543957803"/>
    <trip id="bus185" type="bus_bus" depart="1563.56" departLane="best" from="614030864#0" to="543940444"/>
    <trip id="bus186" type="bus_bus" depart="1572.01" departLane="best" departSpeed="max" from="594300922" to="807557341#0"/>
    <trip id="bus188" type="bus_bus" depart="1588.91" departLane="best" departSpeed="max" from="-318764331" to="-307240377#0"/>
    <trip id="bus189" type="bus_bus" depart="1597.36" departLane="best" from="-594300971#3" to="30572672#1"/>
    <trip id="bus191" type="bus_bus" depart="1614.27" departLane="best" from="-94161511#4" to="169677529#2"/>
    <trip id="bus192" type="bus_bus" depart="1622.72" departLane="best" from="108958425#13" to="287201199"/>
    <trip id="bus193" type="bus_bus" depart="1631.17" departLane="best" from="212501027#1" to="112539464#0"/>
    <trip id="bus194" type="bus_bus" depart="1639.62" departLane="best" departSpeed="max" from="-112539435#3" to="-96559159#0"/>
    <trip id="bus195" type="bus_bus" depart="1648.07" departLane="best" from="-306646040#6" to="-599405923#0"/>
    <trip id="bus196" type="bus_bus" depart="1656.53" departLane="best" from="51181790" to="-96559159#0"/>
    <trip id="bus197" type="bus_bus" depart="1664.98" departLane="best" from="479747946#0" to="57840085#1"/>
    <trip id="bus198" type="bus_bus" depart="1673.43" departLane="best" from="543955979#2" to="112539553#2"/>
    <trip id="bus199" type="bus_bus" depart="1681.88" departLane="best" from="99584021#1" to="-665672895#5"/>
    <trip id="bus202" type="bus_bus" depart="1707.24" departLane="best" from="807557343#0" to="-304002653"/>
    <trip id="bus203" type="bus_bus" depart="1715.69" departLane="best" from="108958414#5" to="-229771639"/>
    <trip id="bus204" type="bus_bus" depart="1724.14" departLane="best" from="-212501014#7" to="-30572307#4"/>
    <trip id="bus205" type="bus_bus" depart="1732.59" departLane="best" departSpeed="max" from="1188609351#0" to="-307240377#0"/>
    <trip id="bus206" type="bus_bus" depart="1741.04" departLane="best" from="-30581035#1" to="543957810#0"/>
    <trip id="bus207" type="bus_bus" depart="1749.49" departLane="best" from="230145817#1" to="-229791483#1"/>
    <trip id="bus208" type="bus_bus" depart="1757.95" departLane="best" departSpeed="max" from="548768494" to="832679443#1"/>
    <trip id="bus209" type="bus_bus" depart="1766.40" departLane="best" from="-589937891#0" to="30572670#6"/>
    <trip id="bus210" type="bus_bus" depart="1774.85" departLane="best" from="951738250" to="108958386#5"/>
    <trip id="bus211" type="bus_bus" depart="1783.30" departLane="best" from="314245707" to="-112539513#2"/>
    <trip id="bus212" type="bus_bus" depart="1791.75" departLane="best" departSpeed="max" from="30572422" to="230087204"/>
    <trip id="bus213" type="bus_bus" depart="1800.20" departLane="best" departSpeed="max" from="-112539585#1" to="543998087#2"/>
    <trip id="bus214" type="bus_bus" depart="1808.66" departLane="best" departSpeed="max" from="594300922" to="229703501#0"/>
    <trip id="bus215" type="bus_bus" depart="1817.11" departLane="best" from="543992713" to="-665672895#1"/>
    <trip id="bus216" type="bus_bus" depart="1825.56" departLane="best" from="108958393#4" to="-951738249"/>
    <trip id="bus217" type="bus_bus" depart="1834.01" departLane="best" from="112539513#0" to="625379818"/>
    <trip id="bus218" type="bus_bus" depart="1842.46" departLane="best" from="591040238#1" to="551326650#1"/>
    <trip id="bus220" type="bus_bus" depart="1859.37" departLane="best" departSpeed="max" from="229786171" to="559389089#0"/>
    <trip id="bus221" type="bus_bus" depart="1867.82" departLane="best" from="306646041#1" to="112539384#2"/>
    <trip id="bus222" type="bus_bus" depart="1876.27" departLane="best" from="-349912720" to="-832679446"/>
    <trip id="bus223" type="bus_bus" depart="1884.72" departLane="best" from="-544133363" to="54442524"/>
    <trip id="bus224" type="bus_bus" depart="1893.17" departLane="best" from="1180474163" to="112539524#1"/>
    <trip id="bus225" type="bus_bus" depart="1901.62" departLane="best" departSpeed="max" from="-544119517#1" to="589937899#1"/>
    <trip id="bus226" type="bus_bus" depart="1910.08" departLane="best" from="-552831498#1" to="-112539580#1"/>
    <trip id="bus227" type="bus_bus" depart="1918.53" departLane="best" from="-614130409#0" to="-437283621"/>
    <trip id="bus229" type="bus_bus" depart="1935.43" departLane="best" from="-306646040#6" to="54442490#1"/>
    <trip id="bus230" type="bus_bus" depart="1943.88" departLane="best" from="595097178#0" to="599409693#0"/>
    <trip id="bus231" type="bus_bus" depart="1952.33" departLane="best" from="-30581040" to="-544161331#1"/>
    <trip id="bus232" type="bus_bus" depart="1960.79" departLane="best" from="-108958391#2" to="784606888"/>
    <trip id="bus233" type="bus_bus" depart="1969.24" departLane="best" departSpeed="max" from="112539462#0" to="543946832#1"/>
    <trip id="bus234" type="bus_bus" depart="1977.69" departLane="best" departSpeed="max" from="30572422" to="287201200"/>
    <trip id="bus235" type="bus_bus" depart="1986.14" departLane="best" from="-112539464#0" to="544161332"/>
    <trip id="bus236" type="bus_bus" depart="1994.59" departLane="best" departSpeed="max" from="-112539562" to="-311168598#0"/>
    <trip id="bus237" type="bus_bus" depart="2003.04" departLane="best" departSpeed="max" from="30572422" to="589937898#1"/>
    <trip id="bus238" type="bus_bus" depart="2011.50" departLane="best" from="166614020#1" to="-112539513#0"/>
    <trip id="bus239" type="bus_bus" depart="2019.95" departLane="best" departSpeed="max" from="112539602#0" to="108958432#2"/>
    <trip id="bus240" type="bus_bus" depart="2028.40" departLane="best" from="38747872#0" to="-599409693#1"/>
    <trip id="bus241" type="bus_bus" depart="2036.85" departLane="best" from="-306646040#1" to="-544113736"/>
    <trip id="bus242" type="bus_bus" depart="2045.30" departLane="best" from="543946832#5" to="-196312638"/>
    <trip id="bus243" type="bus_bus" depart="2053.75" departLane="best" from="1177906441#1" to="543955978#2"/>
    <trip id="bus244" type="bus_bus" depart="2062.21" departLane="best" departSpeed="max" from="-288243878#3" to="306646041#1"/>
    <trip id="bus245" type="bus_bus" depart="2070.66" departLane="best" from="112539447#3" to="367253395"/>
    <trip id="bus246" type="bus_bus" depart="2079.11" departLane="best" from="96559157" to="1181302194#0"/>
    <trip id="bus247" type="bus_bus" depart="2087.56" departLane="best" departSpeed="max" from="-54442524" to="-112539602#7"/>
    <trip id="bus248" type="bus_bus" depart="2096.01" departLane="best" from="293775376#3" to="-314254600#1"/>
    <trip id="bus249" type="bus_bus" depart="2104.46" departLane="best" from="-287201200" to="108958397#2"/>
    <trip id="bus250" type="bus_bus" depart="2112.92" departLane="best" from="112539602#4" to="-544136950#0"/>
    <trip id="bus251" type="bus_bus" depart="2121.37" departLane="best" from="96559152#0" to="1203961697#2"/>
    <trip id="bus252" type="bus_bus" depart="2129.82" departLane="best" from="30572672#0" to="212501014#0"/>
    <trip id="bus253" type="bus_bus" depart="2138.27" departLane="best" departSpeed="max" from="599405923#0" to="112539542#2"/>
    <trip id="bus254" type="bus_bus" depart="2146.72" departLane="best" from="599409693#2" to="-212501017#0"/>
    <trip id="bus255" type="bus_bus" depart="2155.17" departLane="best" departSpeed="max" from="112539408" to="112539405#2"/>
    <trip id="bus256" type="bus_bus" depart="2163.63" departLane="best" departSpeed="max" from="-288243878#3" to="-112539447#1"/>
    <trip id="bus257" type="bus_bus" depart="2172.08" departLane="best" from="785556323" to="112539522#1"/>
    <trip id="bus258" type="bus_bus" depart="2180.53" departLane="best" from="55132515#0" to="108958395#1"/>
    <trip id="bus259" type="bus_bus" depart="2188.98" departLane="best" from="112539513#3" to="230087204"/>
    <trip id="bus260" type="bus_bus" depart="2197.43" departLane="best" from="99583984#1" to="-1188609351#0"/>
    <trip id="bus261" type="bus_bus" depart="2205.88" departLane="best" from="-51231484" to="-229788916"/>
    <trip id="bus262" type="bus_bus" depart="2214.34" departLane="best" departSpeed="max" from="544113736" to="-314254600#0"/>
    <trip id="bus263" type="bus_bus" depart="2222.79" departLane="best" from="108958418#5" to="-594300966#1"/>
    <trip id="bus264" type="bus_bus" depart="2231.24" departLane="best" from="-287201200" to="-229788916"/>