<?xml version="1.0" encoding="UTF-8"?>

<!-- generated on 2024-04-23 20:09:42.225550 by osmWebWizard.py v1_19_0+0000-baa66a0f364
<configuration>
    <net-file value="F:\SUMO\OptimalEmission-SUMO-ReinforcementLearning\2024-04-23-20-09-25\osm.net.xml.gz"/>
    <output-trip-file value="F:\SUMO\OptimalEmission-SUMO-ReinforcementLearning\2024-04-23-20-09-25\osm.passenger.trips.xml"/>
    <route-file value="F:\SUMO\OptimalEmission-SUMO-ReinforcementLearning\2024-04-23-20-09-25\osm.passenger.rou.xml"/>
    <prefix value="veh"/>
    <trip-attributes value="departLane=&quot;best&quot;"/>
    <fringe-start-attributes value="departSpeed=&quot;max&quot;"/>
    <vehicle-class value="passenger"/>
    <lanes value="True"/>
    <fringe-factor value="5"/>
    <allow-fringe.min-length value="1000.0"/>
    <via-edge-types value="highway.motorway,highway.motorway_link,highway.trunk_link,highway.primary_link,highway.secondary_link,highway.tertiary_link"/>
    <min-distance value="300.0"/>
    <min-distance.fringe value="10.0"/>
    <remove-loops value="True"/>
    <validate value="True"/>
    <insertion-density value="12.0"/>
</configuration>
-->

<!-- generated on 2024-04-23 20:09:41 by Eclipse SUMO duarouter Version 1.19.0
<configuration xmlns:xsi="http://www.w3.org/2001/XMLSchema-instance" xsi:noNamespaceSchemaLocation="http://sumo.dlr.de/xsd/duarouterConfiguration.xsd">

    <input>
        <net-file value="F:\SUMO\OptimalEmission-SUMO-ReinforcementLearning\2024-04-23-20-09-25\osm.net.xml.gz"/>
        <route-files value="F:\SUMO\OptimalEmission-SUMO-ReinforcementLearning\2024-04-23-20-09-25\osm.passenger.trips.xml"/>
    </input>

    <output>
        <output-file value="F:\SUMO\OptimalEmission-SUMO-ReinforcementLearning\2024-04-23-20-09-25\osm.passenger.trips.xml.tmp"/>
        <alternatives-output value="NUL"/>
        <write-trips value="true"/>
    </output>

    <processing>
        <remove-loops value="true"/>
    </processing>

    <time>
        <begin value="0.0"/>
        <end value="3600.0"/>
    </time>

    <report>
        <no-warnings value="true"/>
        <ignore-errors value="true"/>
        <no-step-log value="true"/>
    </report>

</configuration>
-->

<routes xmlns:xsi="http://www.w3.org/2001/XMLSchema-instance" xsi:noNamespaceSchemaLocation="http://sumo.dlr.de/xsd/routes_file.xsd">
    <vType id="veh_passenger" vClass="passenger"/>
    <trip id="veh0" type="veh_passenger" depart="0.00" departLane="best" from="287200628#1" to="-108958425#13"/>
    <trip id="veh1" type="veh_passenger" depart="2.82" departLane="best" from="-551326636#1" to="-380428218"/>
    <trip id="veh2" type="veh_passenger" depart="5.63" departLane="best" from="51181767#1" to="314246464"/>
    <trip id="veh3" type="veh_passenger" depart="8.45" departLane="best" from="625374832#0" to="-112539602#0"/>
    <trip id="veh4" type="veh_passenger" depart="11.27" departLane="best" from="-108958397#2" to="108958432#4"/>
    <trip id="veh5" type="veh_passenger" depart="14.09" departLane="best" from="-437283621" to="1181302192#0"/>
    <trip id="veh6" type="veh_passenger" depart="16.90" departLane="best" from="-108958425#7" to="-306646040#2"/>
    <trip id="veh7" type="veh_passenger" depart="19.72" departLane="best" departSpeed="max" from="293775376#0" to="166614020#1"/>
    <trip id="veh9" type="veh_passenger" depart="25.35" departLane="best" from="614030864#0" to="-230145817#1"/>
    <trip id="veh10" type="veh_passenger" depart="28.17" departLane="best" from="832679440" to="-665672895#0"/>
    <trip id="veh11" type="veh_passenger" depart="30.99" departLane="best" departSpeed="max" from="-112539585#1" to="-1182449364"/>
    <trip id="veh12" type="veh_passenger" depart="33.81" departLane="best" from="-594300966#4" to="230023837"/>
    <trip id="veh13" type="veh_passenger" depart="36.62" departLane="best" from="551326650#1" to="-543940440#1"/>
    <trip id="veh14" type="veh_passenger" depart="39.44" departLane="best" from="1183407083#0" to="951738255#1"/>
    <trip id="veh15" type="veh_passenger" depart="42.26" departLane="best" from="807557346#0" to="212501014#2"/>
    <trip id="veh16" type="veh_passenger" depart="45.08" departLane="best" from="57840088" to="287201199"/>
    <trip id="veh17" type="veh_passenger" depart="47.89" departLane="best" from="-599409693#0" to="222282183#1"/>
    <trip id="veh18" type="veh_passenger" depart="50.71" departLane="best" from="327301962#1" to="-112539447#0"/>
    <trip id="veh19" type="veh_passenger" depart="53.53" departLane="best" from="-51231485" to="57840086#3"/>
    <trip id="veh20" type="veh_passenger" depart="56.34" departLane="best" departSpeed="max" from="-112539548#1" to="-503231530#2"/>
    <trip id="veh21" type="veh_passenger" depart="59.16" departLane="best" from="-1181732683#0" to="-552106643#1"/>
    <trip id="veh22" type="veh_passenger" depart="61.98" departLane="best" from="231619071#0" to="94161511#1"/>
    <trip id="veh23" type="veh_passenger" depart="64.80" departLane="best" from="-784606887" to="-314254600#0"/>
    <trip id="veh24" type="veh_passenger" depart="67.61" departLane="best" from="54442526#1" to="767602255#0"/>
    <trip id="veh25" type="veh_passenger" depart="70.43" departLane="best" from="293706970" to="230149325"/>
    <trip id="veh26" type="veh_passenger" depart="73.25" departLane="best" from="288979528#1" to="533430088"/>
    <trip id="veh27" type="veh_passenger" depart="76.06" departLane="best" from="99583970#1" to="299911597#1"/>
    <trip id="veh28" type="veh_passenger" depart="78.88" departLane="best" from="1203961697#0" to="327301952#1"/>
    <trip id="veh29" type="veh_passenger" depart="81.70" departLane="best" from="594300966#0" to="544161333#1"/>
    <trip id="veh30" type="veh_passenger" depart="84.52" departLane="best" from="-543940440#1" to="108958433#1"/>
    <trip id="veh31" type="veh_passenger" depart="87.33" departLane="best" from="594300966#2" to="-551311088"/>
    <trip id="veh32" type="veh_passenger" depart="90.15" departLane="best" from="347940424#2" to="784606886"/>
    <trip id="veh33" type="veh_passenger" depart="92.97" departLane="best" from="614130444" to="-599384475#0"/>
    <trip id="veh34" type="veh_passenger" depart="95.79" departLane="best" from="-299911597#1" to="108958395#1"/>
    <trip id="veh35" type="veh_passenger" depart="98.60" departLane="best" from="666541152#1" to="112539503"/>
    <trip id="veh36" type="veh_passenger" depart="101.42" departLane="best" departSpeed="max" from="-54442524" to="-543999159#1"/>
    <trip id="veh37" type="veh_passenger" depart="104.24" departLane="best" from="1204930087#1" to="54442526#1"/>
    <trip id="veh38" type="veh_passenger" depart="107.05" departLane="best" from="212501014#5" to="1183407083#0"/>
    <trip id="veh39" type="veh_passenger" depart="109.87" departLane="best" from="-99583966#1" to="-347940424#1"/>
    <trip id="veh40" type="veh_passenger" depart="112.69" departLane="best" departSpeed="max" from="99584021#0" to="1181732668#1"/>
    <trip id="veh41" type="veh_passenger" depart="115.51" departLane="best" from="-112539580#3" to="-112539447#1"/>
    <trip id="veh42" type="veh_passenger" depart="118.32" departLane="best" from="-212501013#2" to="-288962374#1"/>
    <trip id="veh43" type="veh_passenger" depart="121.14" departLane="best" from="54442526#1" to="108958434#1"/>
    <trip id="veh44" type="veh_passenger" depart="123.96" departLane="best" from="-112539497#0" to="-101049746"/>
    <trip id="veh45" type="veh_passenger" depart="126.77" departLane="best" from="99584009" to="1203961674#0"/>
    <trip id="veh46" type="veh_passenger" depart="129.59" departLane="best" from="96559145" to="594300975"/>
    <trip id="veh47" type="veh_passenger" depart="132.41" departLane="best" from="108958393#1" to="503231530#2"/>
    <trip id="veh49" type="veh_passenger" depart="138.04" departLane="best" from="54442526#1" to="-299911599#3"/>
    <trip id="veh50" type="veh_passenger" depart="140.86" departLane="best" from="-212501014#2" to="784606888"/>
    <trip id="veh51" type="veh_passenger" depart="143.68" departLane="best" from="-112539395#1" to="785556329"/>
    <trip id="veh52" type="veh_passenger" depart="146.50" departLane="best" from="614130444" to="-54442527#1"/>
    <trip id="veh53" type="veh_passenger" depart="149.31" departLane="best" from="230145817#1" to="299911597#1"/>
    <trip id="veh54" type="veh_passenger" depart="152.13" departLane="best" departSpeed="max" from="666541152#0" to="599409693#1"/>
    <trip id="veh55" type="veh_passenger" depart="154.95" departLane="best" from="589922569#0" to="299911597#0"/>
    <trip id="veh57" type="veh_passenger" depart="160.58" departLane="best" from="543998077#0" to="1204930089"/>
    <trip id="veh58" type="veh_passenger" depart="163.40" departLane="best" from="544131536#0" to="1203961674#2"/>
    <trip id="veh59" type="veh_passenger" depart="166.22" departLane="best" from="101049746" to="61316862"/>
    <trip id="veh61" type="veh_passenger" depart="171.85" departLane="best" from="614130449#0" to="-391650149"/>
    <trip id="veh62" type="veh_passenger" depart="174.67" departLane="best" from="-589937899#2" to="-112539466#0"/>
    <trip id="veh63" type="veh_passenger" depart="177.48" departLane="best" from="614130444" to="785556323"/>
    <trip id="veh64" type="veh_passenger" depart="180.30" departLane="best" from="-112539522#0" to="544119517#1"/>
    <trip id="veh65" type="veh_passenger" depart="183.12" departLane="best" departSpeed="max" from="112539462#0" to="212501013#1"/>
    <trip id="veh66" type="veh_passenger" depart="185.94" departLane="best" departSpeed="max" from="-54442524" to="-61316842#1"/>
    <trip id="veh67" type="veh_passenger" depart="188.75" departLane="best" from="108958400#0" to="-314254600#0"/>
    <trip id="veh68" type="veh_passenger" depart="191.57" departLane="best" from="1187637644" to="543940440#0"/>
    <trip id="veh69" type="veh_passenger" depart="194.39" departLane="best" departSpeed="max" from="-318764331" to="594300971#3"/>
    <trip id="veh70" type="veh_passenger" depart="197.21" departLane="best" from="-99583998#1" to="30572520#0"/>
    <trip id="veh71" type="veh_passenger" depart="200.02" departLane="best" from="108958425#7" to="1187616599#1"/>
    <trip id="veh72" type="veh_passenger" depart="202.84" departLane="best" from="212501025#0" to="-380428218"/>
    <trip id="veh73" type="veh_passenger" depart="205.66" departLane="best" from="-61316856" to="229791484#1"/>
    <trip id="veh74" type="veh_passenger" depart="208.47" departLane="best" from="-543946832#0" to="349912720"/>
    <trip id="veh75" type="veh_passenger" depart="211.29" departLane="best" departSpeed="max" from="-112539522#1" to="290056905"/>
    <trip id="veh76" type="veh_passenger" depart="214.11" departLane="best" from="-543940440#1" to="625379819#1"/>
    <trip id="veh77" type="veh_passenger" depart="216.93" departLane="best" departSpeed="max" from="599405923#0" to="112539522#0"/>
    <trip id="veh78" type="veh_passenger" depart="219.74" departLane="best" departSpeed="max" from="-543998087#2" to="-307240377#0"/>
    <trip id="veh79" type="veh_passenger" depart="222.56" departLane="best" departSpeed="max" from="-367421824" to="-212501032#1"/>
    <trip id="veh80" type="veh_passenger" depart="225.38" departLane="best" from="-784606886" to="212501033#0"/>
    <trip id="veh81" type="veh_passenger" depart="228.19" departLane="best" departSpeed="max" from="112539462#0" to="54442497#1"/>
    <trip id="veh82" type="veh_passenger" depart="231.01" departLane="best" from="551326650#1" to="-30572307#0"/>
    <trip id="veh83" type="veh_passenger" depart="233.83" departLane="best" from="-112539601#2" to="112539405#2"/>
    <trip id="veh84" type="veh_passenger" depart="236.65" departLane="best" from="108958400#1" to="112539522#1"/>
    <trip id="veh85" type="veh_passenger" depart="239.46" departLane="best" from="474645853" to="314244953"/>
    <trip id="veh86" type="veh_passenger" depart="242.28" departLane="best" from="96559159#3" to="-1182449364"/>
    <trip id="veh87" type="veh_passenger" depart="245.10" departLane="best" departSpeed="max" from="-99583998#1" to="-665672895#4"/>
    <trip id="veh88" type="veh_passenger" depart="247.92" departLane="best" from="-599409693#0" to="543999159#5"/>
    <trip id="veh89" type="veh_passenger" depart="250.73" departLane="best" from="-30581035#1" to="112539460#1"/>
    <trip id="veh90" type="veh_passenger" depart="253.55" departLane="best" from="-108958397#2" to="-552106644#1"/>
    <trip id="veh91" type="veh_passenger" depart="256.37" departLane="best" departSpeed="max" from="-544119517#1" to="673201510#1"/>
    <trip id="veh92" type="veh_passenger" depart="259.18" departLane="best" from="-108958432#2" to="594300975"/>
    <trip id="veh93" type="veh_passenger" depart="262.00" departLane="best" from="1194708310#0" to="-112539462#0"/>
    <trip id="veh94" type="veh_passenger" depart="264.82" departLane="best" departSpeed="max" from="99584021#0" to="589937898#0"/>
    <trip id="veh95" type="veh_passenger" depart="267.64" departLane="best" from="958596934#1" to="673219633"/>
    <trip id="veh96" type="veh_passenger" depart="270.45" departLane="best" departSpeed="max" from="112539509#0" to="-323481986#1"/>
    <trip id="veh97" type="veh_passenger" depart="273.27" departLane="best" from="-99583975#1" to="-112539466#1"/>
    <trip id="veh98" type="veh_passenger" depart="276.09" departLane="best" from="-807557346#0" to="96559157"/>
    <trip id="veh99" type="veh_passenger" depart="278.90" departLane="best" departSpeed="max" from="-54442524" to="54442497#1"/>
    <trip id="veh100" type="veh_passenger" depart="281.72" departLane="best" from="-112539403#1" to="108958434#3"/>
    <trip id="veh101" type="veh_passenger" depart="284.54" departLane="best" from="832679440" to="99583980#1"/>
    <trip id="veh102" type="veh_passenger" depart="287.36" departLane="best" from="1203961675" to="503231529"/>
    <trip id="veh103" type="veh_passenger" depart="290.17" departLane="best" departSpeed="max" from="-230256299#2" to="589937899#2"/>
    <trip id="veh104" type="veh_passenger" depart="292.99" departLane="best" from="958596933#1" to="229470578"/>
    <trip id="veh105" type="veh_passenger" depart="295.81" departLane="best" departSpeed="max" from="1188609351#0" to="543998080"/>
    <trip id="veh106" type="veh_passenger" depart="298.63" departLane="best" from="-112539464#3" to="229751632"/>
    <trip id="veh107" type="veh_passenger" depart="301.44" departLane="best" from="-112539572#0" to="-594300966#4"/>
    <trip id="veh108" type="veh_passenger" depart="304.26" departLane="best" from="287200628#0" to="807557346#0"/>
    <trip id="veh109" type="veh_passenger" depart="307.08" departLane="best" from="112539550#0" to="-304002653"/>
    <trip id="veh110" type="veh_passenger" depart="309.89" departLane="best" from="212501027#1" to="314245708"/>
    <trip id="veh111" type="veh_passenger" depart="312.71" departLane="best" from="-543988934#1" to="212501014#3"/>
    <trip id="veh112" type="veh_passenger" depart="315.53" departLane="best" from="625272446#2" to="-543999159#0"/>
    <trip id="veh113" type="veh_passenger" depart="318.35" departLane="best" departSpeed="max" from="212501027#0" to="287201199"/>
    <trip id="veh114" type="veh_passenger" depart="321.16" departLane="best" from="108958393#1" to="229751632"/>
    <trip id="veh115" type="veh_passenger" depart="323.98" departLane="best" from="323481986#1" to="479747946#0"/>
    <trip id="veh116" type="veh_passenger" depart="326.80" departLane="best" departSpeed="max" from="-543998087#2" to="108958395#1"/>
    <trip id="veh117" type="veh_passenger" depart="329.61" departLane="best" departSpeed="max" from="30572422" to="-594300922"/>
    <trip id="veh118" type="veh_passenger" depart="332.43" departLane="best" from="-594300966#3" to="543998087#2"/>
    <trip id="veh119" type="veh_passenger" depart="335.25" departLane="best" from="-112539524#0" to="112539497#0"/>
    <trip id="veh120" type="veh_passenger" depart="338.07" departLane="best" departSpeed="max" from="99584021#0" to="99583980#2"/>
    <trip id="veh121" type="veh_passenger" depart="340.88" departLane="best" departSpeed="max" from="-112539524#1" to="-323481986#0"/>
    <trip id="veh122" type="veh_passenger" depart="343.70" departLane="best" departSpeed="max" from="-54442524" to="767602250#1"/>
    <trip id="veh123" type="veh_passenger" depart="346.52" departLane="best" from="-784606886" to="-231619071#0"/>
    <trip id="veh124" type="veh_passenger" depart="349.34" departLane="best" from="-589937887" to="367253395"/>
    <trip id="veh125" type="veh_passenger" depart="352.15" departLane="best" from="229751632" to="-96559159#3"/>
    <trip id="veh126" type="veh_passenger" depart="354.97" departLane="best" from="-299911597#0" to="-108958386#1"/>
    <trip id="veh127" type="veh_passenger" depart="357.79" departLane="best" from="552831498#0" to="-594300922"/>
    <trip id="veh128" type="veh_passenger" depart="360.60" departLane="best" departSpeed="max" from="304002653" to="784606884"/>
    <trip id="veh129" type="veh_passenger" depart="363.42" departLane="best" from="222282183#0" to="-207383675"/>
    <trip id="veh130" type="veh_passenger" depart="366.24" departLane="best" from="-158219355" to="212501014#4"/>
    <trip id="veh131" type="veh_passenger" depart="369.06" departLane="best" from="55132515#0" to="230087204"/>
    <trip id="veh133" type="veh_passenger" depart="374.69" departLane="best" from="230149325" to="-548747913#0"/>
    <trip id="veh134" type="veh_passenger" depart="377.51" departLane="best" from="-112539509#1" to="625379819#1"/>
    <trip id="veh135" type="veh_passenger" depart="380.32" departLane="best" from="594300966#3" to="-1180474163"/>
    <trip id="veh136" type="veh_passenger" depart="383.14" departLane="best" from="108958400#1" to="552106637"/>
    <trip id="veh137" type="veh_passenger" depart="385.96" departLane="best" from="287198756#1" to="54442490#2"/>
    <trip id="veh138" type="veh_passenger" depart="388.78" departLane="best" from="51181958#1" to="212501014#2"/>
    <trip id="veh139" type="veh_passenger" depart="391.59" departLane="best" from="108958409#1" to="-108958391#1"/>
    <trip id="veh140" type="veh_passenger" depart="394.41" departLane="best" departSpeed="max" from="-112539524#1" to="614130424#0"/>
    <trip id="veh141" type="veh_passenger" depart="397.23" departLane="best" from="643836493#4" to="166614020#2"/>
    <trip id="veh142" type="veh_passenger" depart="400.05" departLane="best" from="-589937891#0" to="229748589#2"/>
    <trip id="veh143" type="veh_passenger" depart="402.86" departLane="best" departSpeed="max" from="-230087204" to="-212501027#0"/>
    <trip id="veh144" type="veh_passenger" depart="405.68" departLane="best" from="-591040238#1" to="625272428#0"/>
    <trip id="veh145" type="veh_passenger" depart="408.50" departLane="best" from="548747913#0" to="594300975"/>
    <trip id="veh146" type="veh_passenger" depart="411.31" departLane="best" from="627277621" to="-314254600#0"/>
    <trip id="veh147" type="veh_passenger" depart="414.13" departLane="best" departSpeed="max" from="-544119517#1" to="-1183407096#0"/>
    <trip id="veh148" type="veh_passenger" depart="416.95" departLane="best" from="544133363" to="614130427#0"/>
    <trip id="veh150" type="veh_passenger" depart="422.58" departLane="best" from="-61316856" to="953323640"/>
    <trip id="veh151" type="veh_passenger" depart="425.40" departLane="best" from="552106637" to="614130409#1"/>
    <trip id="veh152" type="veh_passenger" depart="428.22" departLane="best" from="-599384475#0" to="-675606355#1"/>
    <trip id="veh153" type="veh_passenger" depart="431.03" departLane="best" from="550833862" to="595097178#0"/>
    <trip id="veh154" type="veh_passenger" depart="433.85" departLane="best" from="-552106637" to="-550833862"/>
    <trip id="veh155" type="veh_passenger" depart="436.67" departLane="best" from="54442488#0" to="-1188609351#0"/>
    <trip id="veh156" type="veh_passenger" depart="439.49" departLane="best" from="614130424#1" to="594300971#1"/>
    <trip id="veh157" type="veh_passenger" depart="442.30" departLane="best" from="-503231530#0" to="-554677553#1"/>
    <trip id="veh158" type="veh_passenger" depart="445.12" departLane="best" from="112539418#1" to="-594300966#3"/>
    <trip id="veh159" type="veh_passenger" depart="447.94" departLane="best" from="54808665#2" to="-437283621"/>
    <trip id="veh160" type="veh_passenger" depart="450.76" departLane="best" from="-108958421#1" to="-30572422"/>
    <trip id="veh161" type="veh_passenger" depart="453.57" departLane="best" departSpeed="max" from="-594300975" to="-595097178#1"/>
    <trip id="veh162" type="veh_passenger" depart="456.39" departLane="best" from="-953323640" to="552106644#0"/>
    <trip id="veh163" type="veh_passenger" depart="459.21" departLane="best" from="287286999#5" to="108958404#1"/>
    <trip id="veh164" type="veh_passenger" depart="462.02" departLane="best" departSpeed="max" from="96559159#0" to="1204930087#0"/>
    <trip id="veh165" type="veh_passenger" depart="464.84" departLane="best" from="-785556323" to="-207383675"/>
    <trip id="veh166" type="veh_passenger" depart="467.66" departLane="best" from="96559144" to="299911597#1"/>
    <trip id="veh167" type="veh_passenger" depart="470.48" departLane="best" from="951738255#0" to="-548768489"/>
    <trip id="veh168" type="veh_passenger" depart="473.29" departLane="best" from="-212501013#0" to="112539418#1"/>
    <trip id="veh169" type="veh_passenger" depart="476.11" departLane="best" from="437283621" to="-599384474"/>
    <trip id="veh170" type="veh_passenger" depart="478.93" departLane="best" from="225158334" to="-1181732683#0"/>
    <trip id="veh171" type="veh_passenger" depart="481.74" departLane="best" from="231619071#1" to="222282183#0"/>
    <trip id="veh172" type="veh_passenger" depart="484.56" departLane="best" from="-544133364" to="38747873#1"/>
    <trip id="veh174" type="veh_passenger" depart="490.20" departLane="best" from="1187637630" to="503231530#0"/>
    <trip id="veh175" type="veh_passenger" depart="493.01" departLane="best" from="51182257#0" to="311168598#0"/>
    <trip id="veh176" type="veh_passenger" depart="495.83" departLane="best" from="675606355#1" to="-112539513#3"/>
    <trip id="veh177" type="veh_passenger" depart="498.65" departLane="best" departSpeed="max" from="304002653" to="-625272452"/>
    <trip id="veh178" type="veh_passenger" depart="501.47" departLane="best" from="367253395" to="-594300922"/>
    <trip id="veh179" type="veh_passenger" depart="504.28" departLane="best" departSpeed="max" from="-591040239#2" to="108958418#7"/>
    <trip id="veh180" type="veh_passenger" depart="507.10" departLane="best" departSpeed="max" from="99583998#1" to="589937898#1"/>
    <trip id="veh181" type="veh_passenger" depart="509.92" departLane="best" departSpeed="max" from="-212501032#3" to="108958432#6"/>
    <trip id="veh182" type="veh_passenger" depart="512.73" departLane="best" from="785556323" to="314246464"/>
    <trip id="veh183" type="veh_passenger" depart="515.55" departLane="best" from="643836493#0" to="287198756#1"/>
    <trip id="veh184" type="veh_passenger" depart="518.37" departLane="best" from="-589937891#0" to="169677529#2"/>
    <trip id="veh185" type="veh_passenger" depart="521.19" departLane="best" from="101049746" to="57840085#3"/>
    <trip id="veh186" type="veh_passenger" depart="524.00" departLane="best" from="108958414#2" to="229703501#0"/>
    <trip id="veh187" type="veh_passenger" depart="526.82" departLane="best" from="-299911597#0" to="112539522#1"/>
    <trip id="veh188" type="veh_passenger" depart="529.64" departLane="best" from="108958428#4" to="-323481986#1"/>
    <trip id="veh189" type="veh_passenger" depart="532.45" departLane="best" departSpeed="max" from="112539462#0" to="625272446#2"/>
    <trip id="veh190" type="veh_passenger" depart="535.27" departLane="best" from="548747913#0" to="-293775376#0"/>
    <trip id="veh191" type="veh_passenger" depart="538.09" departLane="best" departSpeed="max" from="-112539562" to="620382826"/>
    <trip id="veh192" type="veh_passenger" depart="540.91" departLane="best" from="230145817#1" to="-643906728"/>
    <trip id="veh193" type="veh_passenger" depart="543.72" departLane="best" from="552831498#2" to="543998087#2"/>
    <trip id="veh194" type="veh_passenger" depart="546.54" departLane="best" departSpeed="max" from="30572422" to="-380428218"/>
    <trip id="veh195" type="veh_passenger" depart="549.36" departLane="best" from="61316859" to="-108958425#11"/>
    <trip id="veh196" type="veh_passenger" depart="552.18" departLane="best" from="543999159#7" to="112539542#2"/>
    <trip id="veh197" type="veh_passenger" depart="554.99" departLane="best" from="-306646040#5" to="35135431#1"/>
    <trip id="veh198" type="veh_passenger" depart="557.81" departLane="best" from="-112539532" to="-543988934#1"/>
    <trip id="veh199" type="veh_passenger" depart="560.63" departLane="best" from="-299911597#1" to="-107683791#2"/>
    <trip id="veh200" type="veh_passenger" depart="563.44" departLane="best" from="543946832#3" to="544133363"/>
    <trip id="veh201" type="veh_passenger" depart="566.26" departLane="best" from="1203961685" to="112539384#2"/>
    <trip id="veh202" type="veh_passenger" depart="569.08" departLane="best" from="-296769292#0" to="807557343#1"/>
    <trip id="veh203" type="veh_passenger" depart="571.90" departLane="best" from="-1180393382#1" to="112539460#2"/>
    <trip id="veh204" type="veh_passenger" depart="574.71" departLane="best" departSpeed="max" from="-544119517#1" to="-594300966#0"/>
    <trip id="veh205" type="veh_passenger" depart="577.53" departLane="best" departSpeed="max" from="112539408" to="-55132515#1"/>
    <trip id="veh207" type="veh_passenger" depart="583.16" departLane="best" from="212501029#0" to="-785556327"/>
    <trip id="veh208" type="veh_passenger" depart="585.98" departLane="best" from="-625272452" to="230256299#2"/>
    <trip id="veh209" type="veh_passenger" depart="588.80" departLane="best" from="367253395" to="1180474163"/>
    <trip id="veh210" type="veh_passenger" depart="591.62" departLane="best" from="587887916" to="169677529#2"/>
    <trip id="veh211" type="veh_passenger" depart="594.43" departLane="best" from="627039424#0" to="543957810#0"/>
    <trip id="veh212" type="veh_passenger" depart="597.25" departLane="best" departSpeed="max" from="112539462#0" to="-544161331#0"/>
    <trip id="veh213" type="veh_passenger" depart="600.07" departLane="best" departSpeed="max" from="-544119517#1" to="296769292#1"/>
    <trip id="veh214" type="veh_passenger" depart="602.89" departLane="best" from="543999159#3" to="1188609350"/>
    <trip id="veh216" type="veh_passenger" depart="608.52" departLane="best" departSpeed="max" from="-112539548#1" to="-57840085#1"/>
    <trip id="veh217" type="veh_passenger" depart="611.34" departLane="best" from="-551311088" to="-599405923#1"/>
    <trip id="veh218" type="veh_passenger" depart="614.15" departLane="best" from="1187637644" to="212501039#2"/>
    <trip id="veh219" type="veh_passenger" depart="616.97" departLane="best" from="-543946832#3" to="347940424#1"/>
    <trip id="veh220" type="veh_passenger" depart="619.79" departLane="best" from="329719849" to="-112539509#0"/>
    <trip id="veh222" type="veh_passenger" depart="625.42" departLane="best" from="108958386#1" to="-307240378#1"/>
    <trip id="veh223" type="veh_passenger" depart="628.24" departLane="best" from="108958393#4" to="625379819#0"/>
    <trip id="veh224" type="veh_passenger" depart="631.06" departLane="best" from="212501014#5" to="349912720"/>
    <trip id="veh225" type="veh_passenger" depart="633.87" departLane="best" from="599384475#2" to="544128878#0"/>
    <trip id="veh226" type="veh_passenger" depart="636.69" departLane="best" from="807557346#1" to="-107683791#2"/>
    <trip id="veh227" type="veh_passenger" depart="639.51" departLane="best" from="-627398404" to="-543999159#2"/>
    <trip id="veh228" type="veh_passenger" depart="642.33" departLane="best" from="597472238" to="785556329"/>
    <trip id="veh229" type="veh_passenger" depart="645.14" departLane="best" from="108958391#3" to="626936019#1"/>
    <trip id="veh230" type="veh_passenger" depart="647.96" departLane="best" from="-479747946#0" to="-347940424#1"/>
    <trip id="veh231" type="veh_passenger" depart="650.78" departLane="best" from="108958425#1" to="-108958432#3"/>
    <trip id="veh232" type="veh_passenger" depart="653.60" departLane="best" from="-599409693#2" to="314257861#1"/>
    <trip id="veh233" type="veh_passenger" depart="656.41" departLane="best" departSpeed="max" from="99583998#1" to="288979528#1"/>
    <trip id="veh234" type="veh_passenger" depart="659.23" departLane="best" departSpeed="max" from="112539447#0" to="-212501027#0"/>
    <trip id="veh235" type="veh_passenger" depart="662.05" departLane="best" departSpeed="max" from="229791483#0" to="-108958425#9"/>
    <trip id="veh236" type="veh_passenger" depart="664.86" departLane="best" departSpeed="max" from="-963631393" to="-212501027#1"/>
    <trip id="veh237" type="veh_passenger" depart="667.68" departLane="best" from="-108958425#9" to="299911601#0"/>
    <trip id="veh238" type="veh_passenger" depart="670.50" departLane="best" from="-222282188" to="-112539513#1"/>
    <trip id="veh239" type="veh_passenger" depart="673.32" departLane="best" departSpeed="max" from="-112539446" to="-99583975#0"/>
    <trip id="veh240" type="veh_passenger" depart="676.13" departLane="best" from="-349912720" to="614032591#1"/>
    <trip id="veh241" type="veh_passenger" depart="678.95" departLane="best" from="543992713" to="-99583975#0"/>
    <trip id="veh242" type="veh_passenger" depart="681.77" departLane="best" from="543946832#4" to="-391650149"/>
    <trip id="veh243" type="veh_passenger" depart="684.58" departLane="best" from="544121190#1" to="112539591#0"/>