<?xml version="1.0" encoding="UTF-8"?>

<!-- generated on 2024-04-23 20:09:44.936892 by osmWebWizard.py v1_19_0+0000-baa66a0f364
<configuration>
    <net-file value="F:\SUMO\OptimalEmission-SUMO-ReinforcementLearning\2024-04-23-20-09-25\osm.net.xml.gz"/>
    <output-trip-file value="F:\SUMO\OptimalEmission-SUMO-ReinforcementLearning\2024-04-23-20-09-25\osm.truck.trips.xml"/>
    <route-file value="F:\SUMO\OptimalEmission-SUMO-ReinforcementLearning\2024-04-23-20-09-25\osm.truck.rou.xml"/>
    <prefix value="truck"/>
    <trip-attributes value="departLane=&quot;best&quot;"/>
    <fringe-start-attributes value="departSpeed=&quot;max&quot;"/>
    <vehicle-class value="truck"/>
    <fringe-factor value="5"/>
    <vclass value="truck"/>
    <via-edge-types value="highway.motorway,highway.motorway_link,highway.trunk_link,highway.primary_link,highway.secondary_link,highway.tertiary_link"/>
    <min-distance value="600.0"/>
    <min-distance.fringe value="10.0"/>
    <remove-loops value="True"/>
    <validate value="True"/>
    <insertion-density value="8.0"/>
</configuration>
-->

<!-- generated on 2024-04-23 20:09:44 by Eclipse SUMO duarouter Version 1.19.0
<configuration xmlns:xsi="http://www.w3.org/2001/XMLSchema-instance" xsi:noNamespaceSchemaLocation="http://sumo.dlr.de/xsd/duarouterConfiguration.xsd">

    <input>
        <net-file value="F:\SUMO\OptimalEmission-SUMO-ReinforcementLearning\2024-04-23-20-09-25\osm.net.xml.gz"/>
        <route-files value="F:\SUMO\OptimalEmission-SUMO-ReinforcementLearning\2024-04-23-20-09-25\osm.truck.trips.xml"/>
    </input>

    <output>
        <output-file value="F:\SUMO\OptimalEmission-SUMO-ReinforcementLearning\2024-04-23-20-09-25\osm.truck.trips.xml.tmp"/>
        <alternatives-output value="NUL"/>
        <write-trips value="true"/>
    </output>

    <processing>
        <remove-loops value="true"/>
    </processing>

    <time>
        <begin value="0.0"/>
        <end value="3600.0"/>
    </time>

    <report>
        <no-warnings value="true"/>
        <ignore-errors value="true"/>
        <no-step-log value="true"/>
    </report>

</configuration>
-->

<routes xmlns:xsi="http://www.w3.org/2001/XMLSchema-instance" xsi:noNamespaceSchemaLocation="http://sumo.dlr.de/xsd/routes_file.xsd">
    <vType id="truck_truck" vClass="truck"/>
    <trip id="truck0" type="truck_truck" depart="0.00" departLane="best" departSpeed="max" from="229791483#0" to="-108958425#1"/>
    <trip id="truck2" type="truck_truck" depart="8.45" departLane="best" from="625272428#0" to="-112539580#1"/>
    <trip id="truck3" type="truck_truck" depart="12.68" departLane="best" departSpeed="max" from="-318764331" to="112539572#0"/>
    <trip id="truck4" type="truck_truck" depart="16.90" departLane="best" from="108958425#13" to="-304002653"/>
    <trip id="truck6" type="truck_truck" depart="25.35" departLane="best" departSpeed="max" from="-318764331" to="212501032#3"/>
    <trip id="truck7" type="truck_truck" depart="29.58" departLane="best" from="595097178#0" to="-229780492"/>
    <trip id="truck8" type="truck_truck" depart="33.81" departLane="best" from="951738250" to="-614030864#1"/>
    <trip id="truck9" type="truck_truck" depart="38.03" departLane="best" departSpeed="max" from="-112539562" to="-112539602#0"/>
    <trip id="truck10" type="truck_truck" depart="42.26" departLane="best" from="-589937898#0" to="-212501033#2"/>
    <trip id="truck11" type="truck_truck" depart="46.48" departLane="best" from="54442488#2" to="38747872#0"/>
    <trip id="truck12" type="truck_truck" depart="50.71" departLane="best" from="1178060204#1" to="951738257#2"/>
    <trip id="truck13" type="truck_truck" depart="54.94" departLane="best" from="552106643#0" to="229891881#1"/>
    <trip id="truck14" type="truck_truck" depart="59.16" departLane="best" from="595097178#1" to="212501023#1"/>
    <trip id="truck15" type="truck_truck" depart="63.39" departLane="best" from="-306646040#3" to="-112539435#1"/>
    <trip id="truck16" type="truck_truck" depart="67.61" departLane="best" from="-347940424#0" to="552106637"/>
    <trip id="truck17" type="truck_truck" depart="71.84" departLane="best" from="-112539524#0" to="334635093#0"/>
    <trip id="truck18" type="truck_truck" depart="76.06" departLane="best" from="-112539585#0" to="54442490#2"/>
    <trip id="truck19" type="truck_truck" depart="80.29" departLane="best" departSpeed="max" from="229786171" to="-785556328"/>
    <trip id="truck20" type="truck_truck" depart="84.52" departLane="best" from="-665672895#5" to="30581035#1"/>
    <trip id="truck21" type="truck_truck" depart="88.74" departLane="best" departSpeed="max" from="-544119517#1" to="-675606355#0"/>
    <trip id="truck23" type="truck_truck" depart="97.19" departLane="best" departSpeed="max" from="-230256299#2" to="38747872#0"/>
    <trip id="truck24" type="truck_truck" depart="101.42" departLane="best" departSpeed="max" from="-230087204" to="-96559159#1"/>
    <trip id="truck25" type="truck_truck" depart="105.65" departLane="best" from="-99583975#0" to="287198756#2"/>
    <trip id="truck26" type="truck_truck" depart="109.87" departLane="best" from="589922569#0" to="-543999159#1"/>
    <trip id="truck27" type="truck_truck" depart="114.10" departLane="best" from="347940424#2" to="-108958432#4"/>
    <trip id="truck28" type="truck_truck" depart="118.32" departLane="best" departSpeed="max" from="-589937898#2" to="-544113736"/>
    <trip id="truck29" type="truck_truck" depart="122.55" departLane="best" from="-306646040#5" to="767602254#0"/>
    <trip id="truck30" type="truck_truck" depart="126.77" departLane="best" from="-61316862" to="-594300966#2"/>
    <trip id="truck31" type="truck_truck" depart="131.00" departLane="best" from="231619071#0" to="108958386#1"/>
    <trip id="truck32" type="truck_truck" depart="135.23" departLane="best" from="544113735" to="499105908"/>
    <trip id="truck33" type="truck_truck" depart="139.45" departLane="best" departSpeed="max" from="1188609351#0" to="-543999159#1"/>
    <trip id="truck34" type="truck_truck" depart="143.68" departLane="best" from="169677529#2" to="614130439#0"/>
    <trip id="truck35" type="truck_truck" depart="147.90" departLane="best" departSpeed="max" from="-963631393" to="-307240377#0"/>
    <trip id="truck36" type="truck_truck" depart="152.13" departLane="best" departSpeed="max" from="99584021#0" to="112539580#4"/>
    <trip id="truck37" type="truck_truck" depart="156.36" departLane="best" departSpeed="max" from="544113736" to="108958428#0"/>
    <trip id="truck38" type="truck_truck" depart="160.58" departLane="best" from="-112539464#4" to="96559164#0"/>
    <trip id="truck39" type="truck_truck" depart="164.81" departLane="best" departSpeed="max" from="99584021#0" to="1181732669#1"/>
    <trip id="truck40" type="truck_truck" depart="169.03" departLane="best" departSpeed="max" from="96559148" to="594300966#2"/>
    <trip id="truck42" type="truck_truck" depart="177.48" departLane="best" departSpeed="max" from="304002653" to="-1187616599#1"/>
    <trip id="truck43" type="truck_truck" depart="181.71" departLane="best" departSpeed="max" from="-544119517#1" to="-287200628#0"/>
    <trip id="truck44" type="truck_truck" depart="185.94" departLane="best" from="-1181732683#0" to="112539384#2"/>
    <trip id="truck46" type="truck_truck" depart="194.39" departLane="best" from="665672895#0" to="594300975"/>
    <trip id="truck47" type="truck_truck" depart="198.61" departLane="best" from="-559389089#0" to="287198754"/>
    <trip id="truck48" type="truck_truck" depart="202.84" departLane="best" departSpeed="max" from="543957814#0" to="1181732683#1"/>
    <trip id="truck49" type="truck_truck" depart="207.07" departLane="best" from="101049746" to="-599384475#1"/>
    <trip id="truck50" type="truck_truck" depart="211.29" departLane="best" from="614030864#1" to="57840085#1"/>
    <trip id="truck51" type="truck_truck" depart="215.52" departLane="best" departSpeed="max" from="-57840086#4" to="-112539462#0"/>
    <trip id="truck52" type="truck_truck" depart="219.74" departLane="best" from="614030864#0" to="784606886"/>
    <trip id="truck53" type="truck_truck" depart="223.97" departLane="best" departSpeed="max" from="-112539548#1" to="112539538#0"/>
    <trip id="truck54" type="truck_truck" depart="228.19" departLane="best" from="-543940440#1" to="212501014#3"/>
    <trip id="truck55" type="truck_truck" depart="232.42" departLane="best" from="-112539435#1" to="1203961674#2"/>
    <trip id="truck56" type="truck_truck" depart="236.65" departLane="best" from="544113735" to="594300975"/>
    <trip id="truck57" type="truck_truck" depart="240.87" departLane="best" from="108958386#1" to="306646040#1"/>
    <trip id="truck58" type="truck_truck" depart="245.10" departLane="best" from="-299911600#1" to="-594300922"/>
    <trip id="truck59" type="truck_truck" depart="249.32" departLane="best" from="99584009" to="288243878#3"/>
    <trip id="truck60" type="truck_truck" depart="253.55" departLane="best" from="108958414#0" to="-112539602#1"/>
    <trip id="truck61" type="truck_truck" depart="257.78" departLane="best" from="-212501013#2" to="-314254600#0"/>
    <trip id="truck62" type="truck_truck" depart="262.00" departLane="best" departSpeed="max" from="-594300975" to="212501032#3"/>
    <trip id="truck63" type="truck_truck" depart="266.23" departLane="best" from="-349912720" to="-307240378#0"/>
    <trip id="truck64" type="truck_truck" depart="270.45" departLane="best" from="-112539509#1" to="-230145817#1"/>
    <trip id="truck65" type="truck_truck" depart="274.68" departLane="best" from="347940424#2" to="625272446#0"/>
    <trip id="truck66" type="truck_truck" depart="278.90" departLane="best" from="-594300971#2" to="-112539509#0"/>
    <trip id="truck67" type="truck_truck" depart="283.13" departLane="best" from="-474645853" to="-30572307#1"/>
    <trip id="truck68" type="truck_truck" depart="287.36" departLane="best" from="307240378#1" to="-212501016#1"/>
    <trip id="truck69" type="truck_truck" depart="291.58" departLane="best" from="767602254#1" to="212501014#5"/>
    <trip id="truck70" type="truck_truck" depart="295.81" departLane="best" from="112539418#1" to="544119517#1"/>
    <trip id="truck72" type="truck_truck" depart="304.26" departLane="best" from="-112539572#0" to="108958434#3"/>
    <trip id="truck73" type="truck_truck" depart="308.49" departLane="best" from="108958386#1" to="112539466#1"/>
    <trip id="truck74" type="truck_truck" depart="312.71" departLane="best" from="329894418" to="30572520#0"/>
    <trip id="truck75" type="truck_truck" depart="316.94" departLane="best" from="96559163#1" to="-112539602#0"/>
    <trip id="truck77" type="truck_truck" depart="325.39" departLane="best" from="288979528#2" to="112539435#3"/>
    <trip id="truck78" type="truck_truck" depart="329.61" departLane="best" from="107683791#2" to="-54442526#0"/>
    <trip id="truck79" type="truck_truck" depart="333.84" departLane="best" from="-543946832#1" to="665672894"/>
    <trip id="truck80" type="truck_truck" depart="338.07" departLane="best" from="108958418#7" to="594300966#2"/>
    <trip id="truck81" type="truck_truck" depart="342.29" departLane="best" departSpeed="max" from="1181995529" to="-112539447#0"/>
    <trip id="truck82" type="truck_truck" depart="346.52" departLane="best" departSpeed="max" from="99584021#0" to="57840086#3"/>
    <trip id="truck83" type="truck_truck" depart="350.74" departLane="best" from="96559145" to="665672895#3"/>
    <trip id="truck85" type="truck_truck" depart="359.20" departLane="best" from="-767602253" to="-96559159#2"/>
    <trip id="truck86" type="truck_truck" depart="363.42" departLane="best" from="951738248" to="99583980#2"/>
    <trip id="truck87" type="truck_truck" depart="367.65" departLane="best" from="-229791484#0" to="-57840085#2"/>
    <trip id="truck88" type="truck_truck" depart="371.87" departLane="best" from="96559145" to="212501024#0"/>
    <trip id="truck89" type="truck_truck" depart="376.10" departLane="best" from="1181302196" to="1187637646"/>
    <trip id="truck90" type="truck_truck" depart="380.32" departLane="best" departSpeed="max" from="112539509#0" to="589937899#2"/>
    <trip id="truck92" type="truck_truck" depart="388.78" departLane="best" from="-212501014#0" to="30572670#3"/>
    <trip id="truck93" type="truck_truck" depart="393.00" departLane="best" from="618039930" to="-479747946#0"/>
    <trip id="truck94" type="truck_truck" depart="397.23" departLane="best" from="-212501013#2" to="229891890#1"/>
    <trip id="truck97" type="truck_truck" depart="409.91" departLane="best" from="30572307#1" to="347940424#1"/>
    <trip id="truck98" type="truck_truck" depart="414.13" departLane="best" from="-474645854" to="108958386#4"/>
    <trip id="truck99" type="truck_truck" depart="418.36" departLane="best" departSpeed="max" from="293775376#0" to="57840086#3"/>
    <trip id="truck100" type="truck_truck" depart="422.58" departLane="best" departSpeed="max" from="-589937898#2" to="533430088"/>
    <trip id="truck102" type="truck_truck" depart="431.03" departLane="best" from="614130444" to="-599405923#1"/>
    <trip id="truck103" type="truck_truck" depart="435.26" departLane="best" from="559389089#1" to="318764330"/>
    <trip id="truck104" type="truck_truck" depart="439.49" departLane="best" from="212501029#1" to="614130427#1"/>
    <trip id="truck105" type="truck_truck" depart="443.71" departLane="best" from="230149325" to="-108958386#4"/>
    <trip id="truck106" type="truck_truck" depart="447.94" departLane="best" from="-288243878#1" to="681561326"/>
    <trip id="truck107" type="truck_truck" depart="452.16" departLane="best" from="544136950#1" to="229751632"/>
    <trip id="truck108" type="truck_truck" depart="456.39" departLane="best" from="314246464" to="-30572307#0"/>
    <trip id="truck109" type="truck_truck" depart="460.62" departLane="best" departSpeed="max" from="229780492" to="543999159#2"/>
    <trip id="truck110" type="truck_truck" depart="464.84" departLane="best" departSpeed="max" from="112539462#0" to="625272428#1"/>
    <trip id="truck111" type="truck_truck" depart="469.07" departLane="best" from="-589937891#1" to="112539591#0"/>
    <trip id="truck113" type="truck_truck" depart="477.52" departLane="best" from="367421825#1" to="1203961697#0"/>
    <trip id="truck114" type="truck_truck" depart="481.74" departLane="best" from="-112539516#0" to="-61316842#1"/>
    <trip id="truck115" type="truck_truck" depart="485.97" departLane="best" from="627043084" to="1194708309"/>
    <trip id="truck116" type="truck_truck" depart="490.20" departLane="best" from="-559389089#2" to="-212501027#1"/>
    <trip id="truck117" type="truck_truck" depart="494.42" departLane="best" departSpeed="max" from="-57840086#4" to="614130439#1"/>
    <trip id="truck118" type="truck_truck" depart="498.65" departLane="best" from="544128878#0" to="-594300966#1"/>
    <trip id="truck119" type="truck_truck" depart="502.87" departLane="best" from="-543946832#1" to="-1181732683#0"/>
    <trip id="truck120" type="truck_truck" depart="507.10" departLane="best" departSpeed="max" from="-543957814#0" to="-312840489"/>
    <trip id="truck121" type="truck_truck" depart="511.33" departLane="best" from="-96559164#2" to="229900391"/>
    <trip id="truck122" type="truck_truck" depart="515.55" departLane="best" from="599384475#0" to="958596933#0"/>
    <trip id="truck123" type="truck_truck" depart="519.78" departLane="best" from="54442526#0" to="599409693#2"/>
    <trip id="truck124" type="truck_truck" depart="524.00" departLane="best" from="108958421#1" to="465858406"/>
    <trip id="truck125" type="truck_truck" depart="528.23" departLane="best" departSpeed="max" from="-594300969#1" to="-673201517#1"/>
    <trip id="truck126" type="truck_truck" depart="532.45" departLane="best" from="544161331#0" to="594300969#1"/>
    <trip id="truck127" type="truck_truck" depart="536.68" departLane="best" from="54442526#0" to="-544113735"/>
    <trip id="truck128" type="truck_truck" depart="540.91" departLane="best" from="-543999159#3" to="-1182449364"/>
    <trip id="truck129" type="truck_truck" depart="545.13" departLane="best" from="599409693#1" to="591040239#0"/>
    <trip id="truck130" type="truck_truck" depart="549.36" departLane="best" from="-544121190#1" to="-314254600#1"/>
    <trip id="truck131" type="truck_truck" depart="553.58" departLane="best" from="108958418#7" to="299911597#1"/>
    <trip id="truck132" type="truck_truck" depart="557.81" departLane="best" from="958596934#1" to="-54442526#0"/>
    <trip id="truck133" type="truck_truck" depart="562.04" departLane="best" departSpeed="max" from="229791483#0" to="-108958393#1"/>
    <trip id="truck134" type="truck_truck" depart="566.26" departLane="best" from="96559159#1" to="-1183407096#0"/>
    <trip id="truck135" type="truck_truck" depart="570.49" departLane="best" from="784606886" to="-1188609351#0"/>
    <trip id="truck136" type="truck_truck" depart="574.71" departLane="best" departSpeed="max" from="96559148" to="543955972#1"/>
    <trip id="truck137" type="truck_truck" depart="578.94" departLane="best" from="951738261" to="543999159#6"/>
    <trip id="truck138" type="truck_truck" depart="583.16" departLane="best" from="112539602#4" to="112539384#2"/>
    <trip id="truck139" type="truck_truck" depart="587.39" departLane="best" from="329894418" to="-594300966#1"/>
    <trip id="truck140" type="truck_truck" depart="591.62" departLane="best" from="212501025#4" to="112539585#1"/>
    <trip id="truck141" type="truck_truck" depart="595.84" departLane="best" from="785556328" to="212501023#1"/>
    <trip id="truck142" type="truck_truck" depart="600.07" departLane="best" from="-543998080" to="327301956#3"/>
    <trip id="truck144" type="truck_truck" depart="608.52" departLane="best" departSpeed="max" from="380428218" to="30572520#0"/>
    <trip id="truck145" type="truck_truck" depart="612.75" departLane="best" from="627377409#0" to="-112539509#0"/>
    <trip id="truck146" type="truck_truck" depart="616.97" departLane="best" from="-288243878#2" to="599409693#0"/>
    <trip id="truck147" type="truck_truck" depart="621.20" departLane="best" from="314257861#1" to="57840086#3"/>
    <trip id="truck148" type="truck_truck" depart="625.42" departLane="best" from="587887916" to="-108958409#1"/>
    <trip id="truck149" type="truck_truck" depart="629.65" departLane="best" departSpeed="max" from="-963631393" to="-57840085#1"/>
    <trip id="truck150" type="truck_truck" depart="633.87" departLane="best" from="-627039424#0" to="229891881#1"/>
    <trip id="truck151" type="truck_truck" depart="638.10" departLane="best" from="-57840085#1" to="1194708311#0"/>
    <trip id="truck152" type="truck_truck" depart="642.33" departLane="best" from="101049746" to="-551326650#0"/>
    <trip id="truck153" type="truck_truck" depart="646.55" departLane="best" from="112539422" to="614130449#1"/>
    <trip id="truck154" type="truck_truck" depart="650.78" departLane="best" from="544128878#0" to="230149325"/>
    <trip id="truck155" type="truck_truck" depart="655.00" departLane="best" departSpeed="max" from="-112539548#1" to="112539593"/>
    <trip id="truck156" type="truck_truck" depart="659.23" departLane="best" departSpeed="max" from="548768494" to="51231484"/>
    <trip id="truck157" type="truck_truck" depart="663.46" departLane="best" departSpeed="max" from="293775376#0" to="-314254600#0"/>
    <trip id="truck158" type="truck_truck" depart="667.68" departLane="best" from="-299911597#0" to="-108958421#1"/>
    <trip id="truck159" type="truck_truck" depart="671.91" departLane="best" from="591040238#1" to="-112539509#1"/>
    <trip id="truck160" type="truck_truck" depart="676.13" departLane="best" departSpeed="max" from="99583998#1" to="230087204"/>
    <trip id="truck161" type="truck_truck" depart="680.36" departLane="best" from="293775376#3" to="314245708"/>
    <trip id="truck162" type="truck_truck" depart="684.58" departLane="best" from="112539464#5" to="437283621"/>
    <trip id="truck163" type="truck_truck" depart="688.81" departLane="best" from="231619071#1" to="-107683791#2"/>
    <trip id="truck164" type="truck_truck" depart="693.04" departLane="best" from="474645854" to="626936019#1"/>
    <trip id="truck165" type="truck_truck" depart="697.26" departLane="best" from="-112539601#1" to="108958432#1"/>
    <trip id="truck166" type="truck_truck" depart="701.49" departLane="best" departSpeed="max" from="-287201199" to="807557345#0"/>
    <trip id="truck167" type="truck_truck" depart="705.71" departLane="best" from="230145817#1" to="-112539447#0"/>
    <trip id="truck168" type="truck_truck" depart="709.94" departLane="best" from="108958432#6" to="54442497#1"/>
    <trip id="truck169" type="truck_truck" depart="714.17" departLane="best" from="288979528#4" to="96559163#1"/>
    <trip id="truck170" type="truck_truck" depart="718.39" departLane="best" from="-212501014#1" to="-785556327"/>
    <trip id="truck172" type="truck_truck" depart="726.84" departLane="best" from="552831498#0" to="1194708311#0"/>
    <trip id="truck173" type="truck_truck" depart="731.07" departLane="best" from="625374832#0" to="503231530#2"/>
    <trip id="truck174" type="truck_truck" depart="735.29" departLane="best" from="112539435#0" to="-543957814#0"/>
    <trip id="truck175" type="truck_truck" depart="739.52" departLane="best" from="-543940440#1" to="1180393382#1"/>
    <trip id="truck176" type="truck_truck" depart="743.75" departLane="best" from="229748589#1" to="-544136950#1"/>
    <trip id="truck177" type="truck_truck" depart="747.97" departLane="best" departSpeed="max" from="-112539522#1" to="-55132515#3"/>
    <trip id="truck178" type="truck_truck" depart="752.20" departLane="best" from="1181302194#0" to="-212501027#0"/>
    <trip id="truck179" type="truck_truck" depart="756.42" departLane="best" departSpeed="max" from="-367421824" to="314244942#6"/>
    <trip id="truck180" type="truck_truck" depart="760.65" departLane="best" from="-99583966#1" to="1190360113#1"/>
    <trip id="truck181" type="truck_truck" depart="764.88" departLane="best" from="101049746" to="-30572422"/>
    <trip id="truck182" type="truck_truck" depart="769.10" departLane="best" from="107683789" to="625272428#1"/>
    <trip id="truck183" type="truck_truck" depart="773.33" departLane="best" from="169677529#1" to="314245707"/>
    <trip id="truck184" type="truck_truck" depart="777.55" departLane="best" from="594300966#4" to="543957803"/>
    <trip id="truck185" type="truck_truck" depart="781.78" departLane="best" from="614030864#0" to="543940444"/>
    <trip id="truck186" type="truck_truck" depart="786.00" departLane="best" departSpeed="max" from="594300922" to="807557341#0"/>
    <trip id="truck188" type="truck_truck" depart="794.46" departLane="best" departSpeed="max" from="-318764331" to="-307240377#0"/>
    <trip id="truck189" type="truck_truck" depart="798.68" departLane="best" from="-594300971#3" to="30572672#1"/>
    <trip id="truck191" type="truck_truck" depart="807.13" departLane="best" from="-94161511#4" to="169677529#2"/>
    <trip id="truck192" type="truck_truck" depart="811.36" departLane="best" from="108958425#13" to="287201199"/>
    <trip id="truck193" type="truck_truck" depart="815.59" departLane="best" from="212501027#1" to="112539464#0"/>
    <trip id="truck194" type="truck_truck" depart="819.81" departLane="best" departSpeed="max" from="-112539435#3" to="-96559159#0"/>
    <trip id="truck195" type="truck_truck" depart="824.04" departLane="best" from="-306646040#6" to="-599405923#0"/>
    <trip id="truck196" type="truck_truck" depart="828.26" departLane="best" from="51181790" to="-96559159#0"/>
    <trip id="truck197" type="truck_truck" depart="832.49" departLane="best" from="479747946#0" to="57840085#1"/>
    <trip id="truck198" type="truck_truck" depart="836.71" departLane="best" from="543955979#2" to="112539553#2"/>
    <trip id="truck199" type="truck_truck" depart="840.94" departLane="best" from="99584021#1" to="-665672895#5"/>
    <trip id="truck202" type="truck_truck" depart="853.62" departLane="best" from="807557343#0" to="-304002653"/>
    <trip id="truck203" type="truck_truck" depart="857.84" departLane="best" from="108958414#5" to="-229771639"/>
    <trip id="truck204" type="truck_truck" depart="862.07" departLane="best" from="-212501014#7" to="-30572307#4"/>
    <trip id="truck205" type="truck_truck" depart="866.30" departLane="best" departSpeed="max" from="1188609351#0" to="-307240377#0"/>
    <trip id="truck206" type="truck_truck" depart="870.52" departLane="best" from="-30581035#1" to="543957810#0"/>
    <trip id="truck207" type="truck_truck" depart="874.75" departLane="best" from="230145817#1" to="-229791483#1"/>
    <trip id="truck208" type="truck_truck" depart="878.97" departLane="best" departSpeed="max" from="548768494" to="832679443#1"/>
    <trip id="truck209" type="truck_truck" depart="883.20" departLane="best" from="-589937891#0" to="30572670#6"/>
    <trip id="truck210" type="truck_truck" depart="887.42" departLane="best" from="951738250" to="108958386#5"/>
    <trip id="truck211" type="truck_truck" depart="891.65" departLane="best" from="314245707" to="-112539513#2"/>
    <trip id="truck212" type="truck_truck" depart="895.88" departLane="best" departSpeed="max" from="30572422" to="230087204"/>
    <trip id="truck213" type="truck_truck" depart="900.10" departLane="best" departSpeed="max" from="-112539585#1" to="543998087#2"/>
    <trip id="truck214" type="truck_truck" depart="904.33" departLane="best" departSpeed="max" from="594300922" to="229703501#0"/>
    <trip id="truck215" type="truck_truck" depart="908.55" departLane="best" from="543992713" to="-665672895#1"/>
    <trip id="truck216" type="truck_truck" depart="912.78" departLane="best" from="108958393#4" to="-951738249"/>
    <trip id="truck217" type="truck_truck" depart="917.01" departLane="best" from="112539513#0" to="625379818"/>
    <trip id="truck218" type="truck_truck" depart="921.23" departLane="best" from="591040238#1" to="551326650#1"/>
    <trip id="truck220" type="truck_truck" depart="929.68" departLane="best" departSpeed="max" from="229786171" to="559389089#0"/>
    <trip id="truck221" type="truck_truck" depart="933.91" departLane="best" from="306646041#1" to="112539384#2"/>
    <trip id="truck222" type="truck_truck" depart="938.13" departLane="best" from="-349912720" to="-832679446"/>
    <trip id="truck223" type="truck_truck" depart="942.36" departLane="best" from="-544133363" to="54442524"/>
    <trip id="truck224" type="truck_truck" depart="946.59" departLane="best" from="1180474163" to="112539524#1"/>
    <trip id="truck225" type="truck_truck" depart="950.81" departLane="best" departSpeed="max" from="-544119517#1" to="589937899#1"/>
    <trip id="truck226" type="truck_truck" depart="955.04" departLane="best" from="-552831498#1" to="-112539580#1"/>
    <trip id="truck227" type="truck_truck" depart="959.26" departLane="best" from="-614130409#0" to="-437283621"/>
    <trip id="truck229" type="truck_truck" depart="967.72" departLane="best" from="-306646040#6" to="54442490#1"/>
    <trip id="truck230" type="truck_truck" depart="971.94" departLane="best" from="595097178#0" to="599409693#0"/>
    <trip id="truck231" type="truck_truck" depart="976.17" departLane="best" from="-30581040" to="-544161331#1"/>
    <trip id="truck232" type="truck_truck" depart="980.39" departLane="best" from="-108958391#2" to="784606888"/>
    <trip id="truck233" type="truck_truck" depart="984.62" departLane="best" departSpeed="max" from="112539462#0" to="543946832#1"/>
    <trip id="truck234" type="truck_truck" depart="988.84" departLane="best" departSpeed="max" from="30572422" to="287201200"/>
    <trip id="truck235" type="truck_truck" depart="993.07" departLane="best" from="-112539464#0" to="544161332"/>
    <trip id="truck236" type="truck_truck" depart="997.30" departLane="best" departSpeed="max" from="-112539562" to="-311168598#0"/>
    <trip id="truck237" type="truck_truck" depart="1001.52" departLane="best" departSpeed="max" from="30572422" to="589937898#1"/>
    <trip id="truck238" type="truck_truck" depart="1005.75" departLane="best" from="166614020#1" to="-112539513#0"/>
    <trip id="truck239" type="truck_truck" depart="1009.97" departLane="best" departSpeed="max" from="112539602#0" to="108958432#2"/>
    <trip id="truck240" type="truck_truck" depart="1014.20" departLane="best" from="38747872#0" to="-599409693#1"/>
    <trip id="truck241" type="truck_truck" depart="1018.43" departLane="best" from="-306646040#1" to="-544113736"/>
    <trip id="truck242" type="truck_truck" depart="1022.65" departLane="best" from="543946832#5" to="-196312638"/>
    <trip id="truck243" type="truck_truck" depart="1026.88" departLane="best" from="1177906441#1" to="543955978#2"/>
    <trip id="truck244" type="truck_truck" depart="1031.10" departLane="best" departSpeed="max" from="-288243878#3" to="306646041#1"/>
    <trip id="truck245" type="truck_truck" depart="1035.33" departLane="best" from="112539447#3" to="367253395"/>
    <trip id="truck246" type="truck_truck" depart="1039.55" departLane="best" from="96559157" to="1181302194#0"/>
    <trip id="truck247" type="truck_truck" depart="1043.78" departLane="best" departSpeed="max" from="-54442524" to="-112539602#7"/>
    <trip id="truck248" type="truck_truck" depart="1048.01" departLane="best" from="293775376#3" to="-314254600#1"/>
    <trip id="truck249" type="truck_truck" depart="1052.23" departLane="best" from="-287201200" to="108958397#2"/>
    <trip id="truck250" type="truck_truck" depart="1056.46" departLane="best" from="112539602#4" to="-544136950#0"/>
    <trip id="truck251" type="truck_truck" depart="1060.68" departLane="best" from="96559152#0" to="1203961697#2"/>
    <trip id="truck252" type="truck_truck" depart="1064.91" departLane="best" from="30572672#0" to="212501014#0"/>
    <trip id="truck253" type="truck_truck" depart="1069.14" departLane="best" departSpeed="max" from="599405923#0" to="112539542#2"/>