<?xml version="1.0" encoding="UTF-8"?>

<!-- generated on 2024-04-23 19:46:31.728619 by osmWebWizard.py v1_19_0+0000-baa66a0f364
<configuration>
    <net-file value="F:\SUMO\OptimalEmission-SUMO-ReinforcementLearning\2024-04-23-19-46-11\osm.net.xml.gz"/>
    <output-trip-file value="F:\SUMO\OptimalEmission-SUMO-ReinforcementLearning\2024-04-23-19-46-11\osm.motorcycle.trips.xml"/>
    <route-file value="F:\SUMO\OptimalEmission-SUMO-ReinforcementLearning\2024-04-23-19-46-11\osm.motorcycle.rou.xml"/>
    <prefix value="motorcycle"/>
    <trip-attributes value="departLane=&quot;best&quot;"/>
    <fringe-start-attributes value="departSpeed=&quot;max&quot;"/>
    <vehicle-class value="motorcycle"/>
    <fringe-factor value="2"/>
    <vclass value="motorcycle"/>
    <via-edge-types value="highway.motorway,highway.motorway_link,highway.trunk_link,highway.primary_link,highway.secondary_link,highway.tertiary_link"/>
    <max-distance value="1200.0"/>
    <remove-loops value="True"/>
    <validate value="True"/>
    <insertion-density value="4.0"/>
</configuration>
-->

<!-- generated on 2024-04-23 19:46:31 by Eclipse SUMO duarouter Version 1.19.0
<configuration xmlns:xsi="http://www.w3.org/2001/XMLSchema-instance" xsi:noNamespaceSchemaLocation="http://sumo.dlr.de/xsd/duarouterConfiguration.xsd">

    <input>
        <net-file value="F:\SUMO\OptimalEmission-SUMO-ReinforcementLearning\2024-04-23-19-46-11\osm.net.xml.gz"/>
        <route-files value="F:\SUMO\OptimalEmission-SUMO-ReinforcementLearning\2024-04-23-19-46-11\osm.motorcycle.trips.xml"/>
    </input>

    <output>
        <output-file value="F:\SUMO\OptimalEmission-SUMO-ReinforcementLearning\2024-04-23-19-46-11\osm.motorcycle.trips.xml.tmp"/>
        <alternatives-output value="NUL"/>
        <write-trips value="true"/>
    </output>

    <processing>
        <remove-loops value="true"/>
    </processing>

    <time>
        <begin value="0.0"/>
        <end value="3600.0"/>
    </time>

    <report>
        <no-warnings value="true"/>
        <ignore-errors value="true"/>
        <no-step-log value="true"/>
    </report>

</configuration>
-->

<routes xmlns:xsi="http://www.w3.org/2001/XMLSchema-instance" xsi:noNamespaceSchemaLocation="http://sumo.dlr.de/xsd/routes_file.xsd">
    <vType id="motorcycle_motorcycle" vClass="motorcycle"/>
    <trip id="motorcycle0" type="motorcycle_motorcycle" depart="0.00" departLane="best" from="23017852#1" to="-1110753055#0"/>
    <trip id="motorcycle1" type="motorcycle_motorcycle" depart="9.90" departLane="best" from="-4611710#1" to="43376693#4"/>
    <trip id="motorcycle2" type="motorcycle_motorcycle" depart="19.79" departLane="best" from="35557143#3" to="28251222#1"/>
    <trip id="motorcycle3" type="motorcycle_motorcycle" depart="29.69" departLane="best" from="1119837993" to="-111833186#1"/>
    <trip id="motorcycle4" type="motorcycle_motorcycle" depart="39.58" departLane="best" from="1073015940#1" to="-16374393#0"/>
    <trip id="motorcycle5" type="motorcycle_motorcycle" depart="49.48" departLane="best" from="-1110751835#1" to="1190781963#1"/>
    <trip id="motorcycle6" type="motorcycle_motorcycle" depart="59.38" departLane="best" from="4588222#1" to="-108031933#1"/>
    <trip id="motorcycle7" type="motorcycle_motorcycle" depart="69.27" departLane="best" from="-4588215#7" to="320462164#2"/>
    <trip id="motorcycle8" type="motorcycle_motorcycle" depart="79.17" departLane="best" from="120675240#4" to="132600840#0"/>
    <trip id="motorcycle9" type="motorcycle_motorcycle" depart="89.07" departLane="best" from="4611710#1" to="196850608#2"/>
    <trip id="motorcycle10" type="motorcycle_motorcycle" depart="98.96" departLane="best" from="4588219#1" to="34832961#2"/>
    <trip id="motorcycle11" type="motorcycle_motorcycle" depart="108.86" departLane="best" from="147066248#7" to="819027709"/>
    <trip id="motorcycle12" type="motorcycle_motorcycle" depart="118.75" departLane="best" from="1077923225#0" to="15973619#1"/>
    <trip id="motorcycle14" type="motorcycle_motorcycle" depart="138.55" departLane="best" from="-4612403#2" to="182623931#0"/>
    <trip id="motorcycle15" type="motorcycle_motorcycle" depart="148.44" departLane="best" from="320462164#2" to="110785555#1"/>
    <trip id="motorcycle16" type="motorcycle_motorcycle" depart="158.34" departLane="best" from="43376693#4" to="1102369979"/>
    <trip id="motorcycle17" type="motorcycle_motorcycle" depart="168.24" departLane="best" from="-1163350372#2" to="-4412868#1"/>
    <trip id="motorcycle18" type="motorcycle_motorcycle" depart="178.13" departLane="best" from="-147066248#1" to="-4611714#7"/>
    <trip id="motorcycle19" type="motorcycle_motorcycle" depart="188.03" departLane="best" from="1195359141" to="67099789#1"/>
    <trip id="motorcycle20" type="motorcycle_motorcycle" depart="197.92" departLane="best" from="236092221#1" to="199847244#1"/>
    <trip id="motorcycle21" type="motorcycle_motorcycle" depart="207.82" departLane="best" from="-23755718#3" to="1102369942"/>
    <trip id="motorcycle22" type="motorcycle_motorcycle" depart="217.72" departLane="best" from="882389497#1" to="-23121445#5"/>
    <trip id="motorcycle23" type="motorcycle_motorcycle" depart="227.61" departLane="best" from="-15973619#1" to="292429062#2"/>
    <trip id="motorcycle24" type="motorcycle_motorcycle" depart="237.51" departLane="best" from="437325055#1" to="-1119938072#1"/>
    <trip id="motorcycle25" type="motorcycle_motorcycle" depart="247.41" departLane="best" from="-505475202#1" to="-4611708#0"/>
    <trip id="motorcycle27" type="motorcycle_motorcycle" depart="267.20" departLane="best" from="-15973619#8" to="-4611693#1"/>
    <trip id="motorcycle28" type="motorcycle_motorcycle" depart="277.09" departLane="best" from="-1127602092#0" to="-43231842#2"/>
    <trip id="motorcycle29" type="motorcycle_motorcycle" depart="286.99" departLane="best" from="950222545" to="122820534#1"/>
    <trip id="motorcycle30" type="motorcycle_motorcycle" depart="296.89" departLane="best" from="707100745#1" to="-1132164893#2"/>
    <trip id="motorcycle31" type="motorcycle_motorcycle" depart="306.78" departLane="best" from="930343902#0" to="147066248#4"/>
    <trip id="motorcycle32" type="motorcycle_motorcycle" depart="316.68" departLane="best" from="81113584#0" to="-4612410#3"/>
    <trip id="motorcycle33" type="motorcycle_motorcycle" depart="326.58" departLane="best" from="-1101961735#0" to="339201250#1"/>
    <trip id="motorcycle34" type="motorcycle_motorcycle" depart="336.47" departLane="best" from="28016312" to="153698402#4"/>
    <trip id="motorcycle35" type="motorcycle_motorcycle" depart="346.37" departLane="best" from="-4610612#0" to="1228609316#1"/>
    <trip id="motorcycle36" type="motorcycle_motorcycle" depart="356.26" departLane="best" from="-15973619#1" to="1126241276#1"/>
    <trip id="motorcycle37" type="motorcycle_motorcycle" depart="366.16" departLane="best" from="1132166702#1" to="-197160273#0"/>
    <trip id="motorcycle38" type="motorcycle_motorcycle" depart="376.06" departLane="best" from="-1165450341#2" to="-292429062#2"/>
    <trip id="motorcycle39" type="motorcycle_motorcycle" depart="385.95" departLane="best" from="541763975" to="4612871#2"/>
    <trip id="motorcycle40" type="motorcycle_motorcycle" depart="395.85" departLane="best" from="4612429#1" to="-23121445#4"/>
    <trip id="motorcycle41" type="motorcycle_motorcycle" depart="405.75" departLane="best" from="196850609#1" to="-22972469#1"/>
    <trip id="motorcycle42" type="motorcycle_motorcycle" depart="415.64" departLane="best" from="389101373#1" to="555858098#2"/>
    <trip id="motorcycle43" type="motorcycle_motorcycle" depart="425.54" departLane="best" from="43376693#4" to="147066248#5"/>
    <trip id="motorcycle46" type="motorcycle_motorcycle" depart="455.23" departLane="best" departSpeed="max" from="-465376254#3" to="-114667396#3"/>
    <trip id="motorcycle48" type="motorcycle_motorcycle" depart="475.02" departLane="best" from="1187575246" to="-1155762025#1"/>
    <trip id="motorcycle49" type="motorcycle_motorcycle" depart="484.92" departLane="best" from="339201250#2" to="-194962375#2"/>
    <trip id="motorcycle50" type="motorcycle_motorcycle" depart="494.81" departLane="best" from="-4610608" to="4612871#6"/>
    <trip id="motorcycle51" type="motorcycle_motorcycle" depart="504.71" departLane="best" from="1119854969#1" to="-375459782#0"/>
    <trip id="motorcycle52" type="motorcycle_motorcycle" depart="514.60" departLane="best" from="-339201177#2" to="508410318#1"/>
    <trip id="motorcycle53" type="motorcycle_motorcycle" depart="524.50" departLane="best" from="-930343901#3" to="23755961#1"/>
    <trip id="motorcycle54" type="motorcycle_motorcycle" depart="534.40" departLane="best" from="1125871619#2" to="1253429075"/>
    <trip id="motorcycle55" type="motorcycle_motorcycle" depart="544.29" departLane="best" from="-168935757#1" to="-437325056#1"/>
    <trip id="motorcycle56" type="motorcycle_motorcycle" depart="554.19" departLane="best" departSpeed="max" from="66071379#1" to="-195104960#0"/>
    <trip id="motorcycle57" type="motorcycle_motorcycle" depart="564.09" departLane="best" departSpeed="max" from="-1151333062#1" to="22972470#4"/>
    <trip id="motorcycle58" type="motorcycle_motorcycle" depart="573.98" departLane="best" from="-4412868#1" to="25042806"/>
    <trip id="motorcycle59" type="motorcycle_motorcycle" depart="583.88" departLane="best" from="66071373#1" to="-195104956#0"/>
    <trip id="motorcycle60" type="motorcycle_motorcycle" depart="593.77" departLane="best" from="1151064386#1" to="4403559#1"/>
    <trip id="motorcycle61" type="motorcycle_motorcycle" depart="603.67" departLane="best" from="-1233798019" to="1125871619#1"/>
    <trip id="motorcycle62" type="motorcycle_motorcycle" depart="613.57" departLane="best" from="1119854969#1" to="1151064402#0"/>
    <trip id="motorcycle63" type="motorcycle_motorcycle" depart="623.46" departLane="best" from="339201251#1" to="-25945760#0"/>
    <trip id="motorcycle64" type="motorcycle_motorcycle" depart="633.36" departLane="best" from="83517336#4" to="-136571494#0"/>
    <trip id="motorcycle65" type="motorcycle_motorcycle" depart="643.25" departLane="best" from="1119837993" to="-4611714#8"/>
    <trip id="motorcycle66" type="motorcycle_motorcycle" depart="653.15" departLane="best" from="1126244314#1" to="4612410#4"/>
    <trip id="motorcycle67" type="motorcycle_motorcycle" depart="663.05" departLane="best" from="159081773" to="-1132167289#1"/>
    <trip id="motorcycle68" type="motorcycle_motorcycle" depart="672.94" departLane="best" from="4611711#0" to="23755950#0"/>
    <trip id="motorcycle69" type="motorcycle_motorcycle" depart="682.84" departLane="best" from="1151333058#1" to="-389101365#3"/>
    <trip id="motorcycle70" type="motorcycle_motorcycle" depart="692.74" departLane="best" from="-1105574291#1" to="-11483007#2"/>
    <trip id="motorcycle71" type="motorcycle_motorcycle" depart="702.63" departLane="best" from="1077923225#0" to="840229277#1"/>
    <trip id="motorcycle72" type="motorcycle_motorcycle" depart="712.53" departLane="best" from="-327756257#0" to="1120538228"/>
    <trip id="motorcycle73" type="motorcycle_motorcycle" depart="722.42" departLane="best" from="15971189" to="339201210"/>
    <trip id="motorcycle74" type="motorcycle_motorcycle" depart="732.32" departLane="best" from="23017852#0" to="-4612968#0"/>
    <trip id="motorcycle75" type="motorcycle_motorcycle" depart="742.22" departLane="best" from="-8008608" to="190447766#1"/>
    <trip id="motorcycle76" type="motorcycle_motorcycle" depart="752.11" departLane="best" from="-1136657266#1" to="194073677#1"/>
    <trip id="motorcycle77" type="motorcycle_motorcycle" depart="762.01" departLane="best" from="1170522572#0" to="4611718#0"/>
    <trip id="motorcycle78" type="motorcycle_motorcycle" depart="771.91" departLane="best" from="-1165450341#0" to="320462164#0"/>
    <trip id="motorcycle79" type="motorcycle_motorcycle" depart="781.80" departLane="best" from="-4773029#3" to="-4588219#2"/>
    <trip id="motorcycle80" type="motorcycle_motorcycle" depart="791.70" departLane="best" from="111833186#0" to="194073677#0"/>
    <trip id="motorcycle81" type="motorcycle_motorcycle" depart="801.59" departLane="best" from="1252995263" to="66071390#1"/>
    <trip id="motorcycle82" type="motorcycle_motorcycle" depart="811.49" departLane="best" from="1102369967#1" to="339201177#3"/>
    <trip id="motorcycle83" type="motorcycle_motorcycle" depart="821.39" departLane="best" from="-4412868#2" to="82488125#0"/>
    <trip id="motorcycle84" type="motorcycle_motorcycle" depart="831.28" departLane="best" from="24509318" to="-4612970#0"/>
    <trip id="motorcycle85" type="motorcycle_motorcycle" depart="841.18" departLane="best" from="1199404285" to="375311158#2"/>
    <trip id="motorcycle86" type="motorcycle_motorcycle" depart="851.08" departLane="best" from="-1152880161" to="1136657266#2"/>
    <trip id="motorcycle87" type="motorcycle_motorcycle" depart="860.97" departLane="best" from="9657820#0" to="930343902#0"/>
    <trip id="motorcycle88" type="motorcycle_motorcycle" depart="870.87" departLane="best" from="-4610608" to="66071373#1"/>
    <trip id="motorcycle89" type="motorcycle_motorcycle" depart="880.76" departLane="best" from="-930343901#4" to="-23121445#3"/>
    <trip id="motorcycle90" type="motorcycle_motorcycle" depart="890.66" departLane="best" from="-505475202#0" to="-328426193#1"/>
    <trip id="motorcycle91" type="motorcycle_motorcycle" depart="900.56" departLane="best" from="-23755950#1" to="1101961674#1"/>
    <trip id="motorcycle92" type="motorcycle_motorcycle" depart="910.45" departLane="best" from="-24242882#1" to="67627350"/>
    <trip id="motorcycle93" type="motorcycle_motorcycle" depart="920.35" departLane="best" from="-195397539" to="15973619#9"/>
    <trip id="motorcycle94" type="motorcycle_motorcycle" depart="930.25" departLane="best" from="-158023913#1" to="15973619#2"/>
    <trip id="motorcycle95" type="motorcycle_motorcycle" depart="940.14" departLane="best" from="-4611708#0" to="196850609#0"/>
    <trip id="motorcycle96" type="motorcycle_motorcycle" depart="950.04" departLane="best" from="-195397561#0" to="-4611694#1"/>
    <trip id="motorcycle97" type="motorcycle_motorcycle" depart="959.93" departLane="best" from="4611708#2" to="-1228446781#2"/>
    <trip id="motorcycle98" type="motorcycle_motorcycle" depart="969.83" departLane="best" from="1119854969#1" to="-4611714#5"/>
    <trip id="motorcycle99" type="motorcycle_motorcycle" depart="979.73" departLane="best" from="-1040930907#4" to="43376693#1"/>
    <trip id="motorcycle100" type="motorcycle_motorcycle" depart="989.62" departLane="best" from="22972470#5" to="-4611693#0"/>
    <trip id="motorcycle101" type="motorcycle_motorcycle" depart="999.52" departLane="best" from="35578576#0" to="15971197"/>
    <trip id="motorcycle102" type="motorcycle_motorcycle" depart="1009.42" departLane="best" from="1119938072#0" to="1101961674#4"/>
    <trip id="motorcycle103" type="motorcycle_motorcycle" depart="1019.31" departLane="best" from="1155757393#1" to="465376255#2"/>
    <trip id="motorcycle104" type="motorcycle_motorcycle" depart="1029.21" departLane="best" from="202817674#3" to="-194962375#1"/>
    <trip id="motorcycle105" type="motorcycle_motorcycle" depart="1039.10" departLane="best" from="-474362271" to="490365295#0"/>
    <trip id="motorcycle106" type="motorcycle_motorcycle" depart="1049.00" departLane="best" from="4840859#2" to="-375311158#3"/>
    <trip id="motorcycle107" type="motorcycle_motorcycle" depart="1058.90" departLane="best" from="437325055#1" to="47707171#1"/>
    <trip id="motorcycle108" type="motorcycle_motorcycle" depart="1068.79" departLane="best" from="-22972469#1" to="-1132166349#0"/>
    <trip id="motorcycle109" type="motorcycle_motorcycle" depart="1078.69" departLane="best" from="-1132165078#0" to="465376243"/>
    <trip id="motorcycle110" type="motorcycle_motorcycle" depart="1088.59" departLane="best" from="1110748916#1" to="-35578576#4"/>
    <trip id="motorcycle111" type="motorcycle_motorcycle" depart="1098.48" departLane="best" from="-65040946#2" to="66071366#2"/>
    <trip id="motorcycle112" type="motorcycle_motorcycle" depart="1108.38" departLane="best" from="4588224#1" to="-4611706#1"/>
    <trip id="motorcycle113" type="motorcycle_motorcycle" depart="1118.27" departLane="best" departSpeed="max" from="4403526#0" to="-159081777#1"/>
    <trip id="motorcycle114" type="motorcycle_motorcycle" depart="1128.17" departLane="best" from="4612429#1" to="4612403#5"/>
    <trip id="motorcycle115" type="motorcycle_motorcycle" depart="1138.07" departLane="best" from="-43231842#0" to="-4597325#1"/>
    <trip id="motorcycle117" type="motorcycle_motorcycle" depart="1157.86" departLane="best" from="-1105574291#2" to="-335462916"/>
    <trip id="motorcycle118" type="motorcycle_motorcycle" depart="1167.76" departLane="best" from="-625647965#0" to="-4612414#0"/>
    <trip id="motorcycle119" type="motorcycle_motorcycle" depart="1177.65" departLane="best" from="-7913573#1" to="4611718#0"/>
    <trip id="motorcycle120" type="motorcycle_motorcycle" depart="1187.55" departLane="best" from="23121445#0" to="-1110748916#1"/>
    <trip id="motorcycle121" type="motorcycle_motorcycle" depart="1197.44" departLane="best" from="339201251#1" to="-508410319#2"/>
    <trip id="motorcycle122" type="motorcycle_motorcycle" depart="1207.34" departLane="best" from="196850608#0" to="-4597322#0"/>
    <trip id="motorcycle123" type="motorcycle_motorcycle" depart="1217.24" departLane="best" from="1170522567#0" to="173296880#0"/>
    <trip id="motorcycle125" type="motorcycle_motorcycle" depart="1237.03" departLane="best" from="153698394#3" to="831694400#0"/>
    <trip id="motorcycle126" type="motorcycle_motorcycle" depart="1246.93" departLane="best" from="35578576#3" to="251884680#0"/>
    <trip id="motorcycle127" type="motorcycle_motorcycle" depart="1256.82" departLane="best" from="24242892#0" to="66071366#4"/>
    <trip id="motorcycle128" type="motorcycle_motorcycle" depart="1266.72" departLane="best" from="-47755711#3" to="4611714#2"/>
    <trip id="motorcycle129" type="motorcycle_motorcycle" depart="1276.61" departLane="best" from="-4773029#1" to="1115641285#1"/>
    <trip id="motorcycle130" type="motorcycle_motorcycle" depart="1286.51" departLane="best" departSpeed="max" from="492340367#0" to="202156991"/>
    <trip id="motorcycle131" type="motorcycle_motorcycle" depart="1296.41" departLane="best" from="23755961#1" to="1151064386#0"/>
    <trip id="motorcycle132" type="motorcycle_motorcycle" depart="1306.30" departLane="best" from="1126244314#0" to="-389101365#3"/>
    <trip id="motorcycle133" type="motorcycle_motorcycle" depart="1316.20" departLane="best" from="1176516118#1" to="1249342905"/>
    <trip id="motorcycle134" type="motorcycle_motorcycle" depart="1326.09" departLane="best" from="4597324#1" to="16374191#1"/>
    <trip id="motorcycle135" type="motorcycle_motorcycle" depart="1335.99" departLane="best" from="-24913267#3" to="-437325055#2"/>
    <trip id="motorcycle136" type="motorcycle_motorcycle" depart="1345.89" departLane="best" from="335462916" to="1110752486"/>
    <trip id="motorcycle137" type="motorcycle_motorcycle" depart="1355.78" departLane="best" from="4588211#1" to="-1151333057#0"/>
    <trip id="motorcycle138" type="motorcycle_motorcycle" depart="1365.68" departLane="best" from="4611711#1" to="-1155762025#1"/>
    <trip id="motorcycle139" type="motorcycle_motorcycle" depart="1375.58" departLane="best" from="1113726463" to="22972469#1"/>
    <trip id="motorcycle140" type="motorcycle_motorcycle" depart="1385.47" departLane="best" from="375311153#1" to="43348945#1"/>
    <trip id="motorcycle141" type="motorcycle_motorcycle" depart="1395.37" departLane="best" from="153698380#1" to="1123106898#1"/>
    <trip id="motorcycle142" type="motorcycle_motorcycle" depart="1405.26" departLane="best" from="-24997595#0" to="753730627#0"/>
    <trip id="motorcycle143" type="motorcycle_motorcycle" depart="1415.16" departLane="best" from="1228446781#1" to="-1132166702#2"/>
    <trip id="motorcycle144" type="motorcycle_motorcycle" depart="1425.06" departLane="best" from="24243092#0" to="874528353#1"/>
    <trip id="motorcycle145" type="motorcycle_motorcycle" depart="1434.95" departLane="best" from="195104960#4" to="-176273730#1"/>
    <trip id="motorcycle146" type="motorcycle_motorcycle" depart="1444.85" departLane="best" from="4773463#1" to="199847252#1"/>
    <trip id="motorcycle147" type="motorcycle_motorcycle" depart="1454.75" departLane="best" from="-1151064402#1" to="4610524#0"/>
    <trip id="motorcycle148" type="motorcycle_motorcycle" depart="1464.64" departLane="best" from="339201250#2" to="1267489731"/>
    <trip id="motorcycle149" type="motorcycle_motorcycle" depart="1474.54" departLane="best" from="206718346#2" to="-4611714#2"/>
    <trip id="motorcycle150" type="motorcycle_motorcycle" depart="1484.43" departLane="best" from="-1159156576#0" to="-4612410#5"/>
    <trip id="motorcycle151" type="motorcycle_motorcycle" depart="1494.33" departLane="best" from="4611706#1" to="-563341815#0"/>
    <trip id="motorcycle152" type="motorcycle_motorcycle" depart="1504.23" departLane="best" from="153698402#1" to="-195411605#1"/>
    <trip id="motorcycle154" type="motorcycle_motorcycle" depart="1524.02" departLane="best" from="326116285#7" to="-1151333057#0"/>
    <trip id="motorcycle155" type="motorcycle_motorcycle" depart="1533.92" departLane="best" from="-24997595#0" to="37289106"/>
    <trip id="motorcycle156" type="motorcycle_motorcycle" depart="1543.81" departLane="best" from="190447766#1" to="320420912#2"/>
    <trip id="motorcycle157" type="motorcycle_motorcycle" depart="1553.71" departLane="best" from="4611714#8" to="43156537"/>
    <trip id="motorcycle158" type="motorcycle_motorcycle" depart="1563.60" departLane="best" departSpeed="max" from="-43156537" to="-43231842#2"/>
    <trip id="motorcycle159" type="motorcycle_motorcycle" depart="1573.50" departLane="best" from="1125869405#1" to="-111833186#0"/>
    <trip id="motorcycle160" type="motorcycle_motorcycle" depart="1583.40" departLane="best" from="66071366#3" to="289965634"/>
    <trip id="motorcycle161" type="motorcycle_motorcycle" depart="1593.29" departLane="best" from="-1132164863" to="-23755739#1"/>
    <trip id="motorcycle162" type="motorcycle_motorcycle" depart="1603.19" departLane="best" from="-114667396#0" to="-194962375#1"/>
    <trip id="motorcycle163" type="motorcycle_motorcycle" depart="1613.09" departLane="best" from="1102369965#4" to="168515533#2"/>
    <trip id="motorcycle164" type="motorcycle_motorcycle" depart="1622.98" departLane="best" from="-1110752632#3" to="1119936840#1"/>
    <trip id="motorcycle165" type="motorcycle_motorcycle" depart="1632.88" departLane="best" from="-195397541#2" to="-114667396#2"/>
    <trip id="motorcycle166" type="motorcycle_motorcycle" depart="1642.77" departLane="best" from="356359316#2" to="65040946#4"/>
    <trip id="motorcycle167" type="motorcycle_motorcycle" depart="1652.67" departLane="best" from="38208961" to="1102369942"/>
    <trip id="motorcycle168" type="motorcycle_motorcycle" depart="1662.57" departLane="best" from="375311154#0" to="4610612#0"/>
    <trip id="motorcycle169" type="motorcycle_motorcycle" depart="1672.46" departLane="best" from="98399537" to="1136657260#1"/>
    <trip id="motorcycle170" type="motorcycle_motorcycle" depart="1682.36" departLane="best" from="-23755718#3" to="4402037#0"/>
    <trip id="motorcycle171" type="motorcycle_motorcycle" depart="1692.26" departLane="best" from="23755720#2" to="-375459781#1"/>
    <trip id="motorcycle172" type="motorcycle_motorcycle" depart="1702.15" departLane="best" from="690322561" to="35557143#2"/>
    <trip id="motorcycle173" type="motorcycle_motorcycle" depart="1712.05" departLane="best" from="108488061#4" to="25042806"/>
    <trip id="motorcycle174" type="motorcycle_motorcycle" depart="1721.94" departLane="best" from="312357351#1" to="43231842#1"/>
    <trip id="motorcycle175" type="motorcycle_motorcycle" depart="1731.84" departLane="best" from="-23755739#2" to="-197160273#3"/>
    <trip id="motorcycle177" type="motorcycle_motorcycle" depart="1751.63" departLane="best" from="-159081775#2" to="1110753055#1"/>
    <trip id="motorcycle178" type="motorcycle_motorcycle" depart="1761.53" departLane="best" from="328426251#2" to="-1163350372#1"/>
    <trip id="motorcycle179" type="motorcycle_motorcycle" depart="1771.43" departLane="best" from="292429062#1" to="22972195#2"/>
    <trip id="motorcycle180" type="motorcycle_motorcycle" depart="1781.32" departLane="best" from="-147066248#2" to="43376693#3"/>
    <trip id="motorcycle181" type="motorcycle_motorcycle" depart="1791.22" departLane="best" from="4611712#0" to="196850607#0"/>
    <trip id="motorcycle182" type="motorcycle_motorcycle" depart="1801.11" departLane="best" from="-168935757#1" to="83517336#4"/>
    <trip id="motorcycle183" type="motorcycle_motorcycle" depart="1811.01" departLane="best" from="1119938072#1" to="1079495669#1"/>
    <trip id="motorcycle184" type="motorcycle_motorcycle" depart="1820.91" departLane="best" from="4611711#1" to="4610476#2"/>
    <trip id="motorcycle185" type="motorcycle_motorcycle" depart="1830.80" departLane="best" from="22972469#2" to="4610607#0"/>
    <trip id="motorcycle186" type="motorcycle_motorcycle" depart="1840.70" departLane="best" from="-326116286#1" to="1126244314#0"/>
    <trip id="motorcycle187" type="motorcycle_motorcycle" depart="1850.60" departLane="best" from="1125869405#1" to="35557143#3"/>
    <trip id="motorcycle188" type="motorcycle_motorcycle" depart="1860.49" departLane="best" from="4611693#2" to="4611714#7"/>
    <trip id="motorcycle189" type="motorcycle_motorcycle" depart="1870.39" departLane="best" from="4610479#2" to="-1191472404"/>
    <trip id="motorcycle190" type="motorcycle_motorcycle" depart="1880.28" departLane="best" from="1136657266#1" to="199847241#0"/>
    <trip id="motorcycle191" type="motorcycle_motorcycle" depart="1890.18" departLane="best" from="1077923225#0" to="-111833185#1"/>
    <trip id="motorcycle192" type="motorcycle_motorcycle" depart="1900.08" departLane="best" from="4611713" to="4612414#1"/>
    <trip id="motorcycle193" type="motorcycle_motorcycle" depart="1909.97" departLane="best" from="-356359316#3" to="4588215#2"/>
    <trip id="motorcycle194" type="motorcycle_motorcycle" depart="1919.87" departLane="best" from="31313667#2" to="-4611714#4"/>
    <trip id="motorcycle195" type="motorcycle_motorcycle" depart="1929.76" departLane="best" from="-1101961674#3" to="68647306#5"/>
    <trip id="motorcycle196" type="motorcycle_motorcycle" depart="1939.66" departLane="best" from="-1187575246" to="339201250#0"/>
    <trip id="motorcycle197" type="motorcycle_motorcycle" depart="1949.56" departLane="best" from="1151333061#1" to="389101373#3"/>
    <trip id="motorcycle198" type="motorcycle_motorcycle" depart="1959.45" departLane="best" from="-292429062#1" to="23755720#1"/>
    <trip id="motorcycle199" type="motorcycle_motorcycle" depart="1969.35" departLane="best" from="1152880163#1" to="4474915#2"/>
    <trip id="motorcycle200" type="motorcycle_motorcycle" depart="1979.25" departLane="best" from="-120675240#4" to="-43376693#2"/>
    <trip id="motorcycle201" type="motorcycle_motorcycle" depart="1989.14" departLane="best" from="-292429062#2" to="-47755711#1"/>
    <trip id="motorcycle202" type="motorcycle_motorcycle" depart="1999.04" departLane="best" from="173296880#0" to="1151326817#1"/>
    <trip id="motorcycle203" type="motorcycle_motorcycle" depart="2008.93" departLane="best" from="136571494#1" to="1123184403"/>
    <trip id="motorcycle204" type="motorcycle_motorcycle" depart="2018.83" departLane="best" from="320420913#0" to="-4611710#2"/>
    <trip id="motorcycle205" type="motorcycle_motorcycle" depart="2028.73" departLane="best" from="147066248#7" to="24240245#1"/>
    <trip id="motorcycle206" type="motorcycle_motorcycle" depart="2038.62" departLane="best" from="1151333057#1" to="340498976#8"/>
    <trip id="motorcycle207" type="motorcycle_motorcycle" depart="2048.52" departLane="best" from="-4611714#7" to="-147066248#2"/>
    <trip id="motorcycle208" type="motorcycle_motorcycle" depart="2058.42" departLane="best" from="-327756257#1" to="-4401967#2"/>
    <trip id="motorcycle209" type="motorcycle_motorcycle" depart="2068.31" departLane="best" from="-25945760#0" to="4610610#1"/>
    <trip id="motorcycle210" type="motorcycle_motorcycle" depart="2078.21" departLane="best" from="147066248#4" to="-4611714#1"/>
    <trip id="motorcycle211" type="motorcycle_motorcycle" depart="2088.10" departLane="best" from="82488125#1" to="15973619#3"/>
    <trip id="motorcycle212" type="motorcycle_motorcycle" depart="2098.00" departLane="best" from="4612412#2" to="-1163350372#2"/>
    <trip id="motorcycle213" type="motorcycle_motorcycle" depart="2107.90" departLane="best" from="4612429#1" to="196850609#0"/>
    <trip id="motorcycle214" type="motorcycle_motorcycle" depart="2117.79" departLane="best" from="-114667396#3" to="-1127596842#0"/>
    <trip id="motorcycle215" type="motorcycle_motorcycle" depart="2127.69" departLane="best" from="292429063#0" to="-1134013286"/>
    <trip id="motorcycle217" type="motorcycle_motorcycle" depart="2147.48" departLane="best" from="4597325#2" to="1110749960#1"/>
    <trip id="motorcycle218" type="motorcycle_motorcycle" depart="2157.38" departLane="best" from="-1132167289#1" to="210668637#0"/>
    <trip id="motorcycle219" type="motorcycle_motorcycle" depart="2167.27" departLane="best" from="15977422#0" to="-4773029#3"/>
    <trip id="motorcycle220" type="motorcycle_motorcycle" depart="2177.17" departLane="best" from="-930343901#1" to="-168935756#1"/>
    <trip id="motorcycle221" type="motorcycle_motorcycle" depart="2187.07" departLane="best" from="404598738#0" to="197160273#1"/>