<?xml version="1.0" encoding="UTF-8"?>

<!-- generated on 2024-04-23 19:46:37.963082 by osmWebWizard.py v1_19_0+0000-baa66a0f364
<configuration>
    <net-file value="F:\SUMO\OptimalEmission-SUMO-ReinforcementLearning\2024-04-23-19-46-11\osm.net.xml.gz"/>
    <output-trip-file value="F:\SUMO\OptimalEmission-SUMO-ReinforcementLearning\2024-04-23-19-46-11\osm.truck.trips.xml"/>
    <route-file value="F:\SUMO\OptimalEmission-SUMO-ReinforcementLearning\2024-04-23-19-46-11\osm.truck.rou.xml"/>
    <prefix value="truck"/>
    <trip-attributes value="departLane=&quot;best&quot;"/>
    <fringe-start-attributes value="departSpeed=&quot;max&quot;"/>
    <vehicle-class value="truck"/>
    <fringe-factor value="5"/>
    <vclass value="truck"/>
    <via-edge-types value="highway.motorway,highway.motorway_link,highway.trunk_link,highway.primary_link,highway.secondary_link,highway.tertiary_link"/>
    <min-distance value="600.0"/>
    <min-distance.fringe value="10.0"/>
    <remove-loops value="True"/>
    <validate value="True"/>
    <insertion-density value="8.0"/>
</configuration>
-->

<!-- generated on 2024-04-23 19:46:37 by Eclipse SUMO duarouter Version 1.19.0
<configuration xmlns:xsi="http://www.w3.org/2001/XMLSchema-instance" xsi:noNamespaceSchemaLocation="http://sumo.dlr.de/xsd/duarouterConfiguration.xsd">

    <input>
        <net-file value="F:\SUMO\OptimalEmission-SUMO-ReinforcementLearning\2024-04-23-19-46-11\osm.net.xml.gz"/>
        <route-files value="F:\SUMO\OptimalEmission-SUMO-ReinforcementLearning\2024-04-23-19-46-11\osm.truck.trips.xml"/>
    </input>

    <output>
        <output-file value="F:\SUMO\OptimalEmission-SUMO-ReinforcementLearning\2024-04-23-19-46-11\osm.truck.trips.xml.tmp"/>
        <alternatives-output value="NUL"/>
        <write-trips value="true"/>
    </output>

    <processing>
        <remove-loops value="true"/>
    </processing>

    <time>
        <begin value="0.0"/>
        <end value="3600.0"/>
    </time>

    <report>
        <no-warnings value="true"/>
        <ignore-errors value="true"/>
        <no-step-log value="true"/>
    </report>

</configuration>
-->

<routes xmlns:xsi="http://www.w3.org/2001/XMLSchema-instance" xsi:noNamespaceSchemaLocation="http://sumo.dlr.de/xsd/routes_file.xsd">
    <vType id="truck_truck" vClass="truck"/>
    <trip id="truck0" type="truck_truck" depart="0.00" departLane="best" from="-4611708#1" to="4402014#3"/>
    <trip id="truck1" type="truck_truck" depart="4.95" departLane="best" from="34832961#2" to="292429056#1"/>
    <trip id="truck2" type="truck_truck" depart="9.90" departLane="best" from="-4773029#4" to="-1199889721#0"/>
    <trip id="truck3" type="truck_truck" depart="14.84" departLane="best" from="1115641285#1" to="-1119854969#0"/>
    <trip id="truck4" type="truck_truck" depart="19.79" departLane="best" from="-1110748916#1" to="-356359316#2"/>
    <trip id="truck5" type="truck_truck" depart="24.74" departLane="best" from="23755718#1" to="-15973619#1"/>
    <trip id="truck6" type="truck_truck" depart="29.69" departLane="best" from="-389101365#3" to="195397561#2"/>
    <trip id="truck7" type="truck_truck" depart="34.64" departLane="best" from="4588215#3" to="-328426193#1"/>
    <trip id="truck8" type="truck_truck" depart="39.58" departLane="best" from="-1127597264#0" to="7913573#4"/>
    <trip id="truck9" type="truck_truck" depart="44.53" departLane="best" from="4588215#5" to="-35578576#4"/>
    <trip id="truck10" type="truck_truck" depart="49.48" departLane="best" from="-153698380#2" to="81112790#0"/>
    <trip id="truck11" type="truck_truck" depart="54.43" departLane="best" from="930343901#2" to="160971191#3"/>
    <trip id="truck12" type="truck_truck" depart="59.38" departLane="best" from="4610476#5" to="-206718346#2"/>
    <trip id="truck13" type="truck_truck" depart="64.33" departLane="best" from="4612403#5" to="194073677#0"/>
    <trip id="truck14" type="truck_truck" depart="69.27" departLane="best" from="320420913#0" to="-1132165078#0"/>
    <trip id="truck15" type="truck_truck" depart="74.22" departLane="best" from="43376693#1" to="4612871#6"/>
    <trip id="truck16" type="truck_truck" depart="79.17" departLane="best" from="1163350372#1" to="-453379904"/>
    <trip id="truck17" type="truck_truck" depart="84.12" departLane="best" from="22972219#1" to="1053026513#1"/>
    <trip id="truck19" type="truck_truck" depart="94.01" departLane="best" from="-4610607#0" to="67099797#1"/>
    <trip id="truck20" type="truck_truck" depart="98.96" departLane="best" from="233835641#2" to="199847252#3"/>
    <trip id="truck21" type="truck_truck" depart="103.91" departLane="best" from="-24509318" to="35578576#0"/>
    <trip id="truck22" type="truck_truck" depart="108.86" departLane="best" from="23755718#3" to="1102369965#2"/>
    <trip id="truck23" type="truck_truck" depart="113.81" departLane="best" from="-874528353#3" to="23755720#2"/>
    <trip id="truck24" type="truck_truck" depart="118.75" departLane="best" from="15973619#2" to="-30705211#0"/>
    <trip id="truck25" type="truck_truck" depart="123.70" departLane="best" from="4611699#1" to="4402014#3"/>
    <trip id="truck26" type="truck_truck" depart="128.65" departLane="best" from="43376693#3" to="-1120532695"/>
    <trip id="truck29" type="truck_truck" depart="143.50" departLane="best" departSpeed="max" from="23809670" to="1108304588#1"/>
    <trip id="truck30" type="truck_truck" depart="148.44" departLane="best" from="541763977#1" to="1151064388#1"/>
    <trip id="truck31" type="truck_truck" depart="153.39" departLane="best" departSpeed="max" from="4610524#1" to="4597324#1"/>
    <trip id="truck32" type="truck_truck" depart="158.34" departLane="best" from="15977422#0" to="-4611708#0"/>
    <trip id="truck33" type="truck_truck" depart="163.29" departLane="best" from="190447766#1" to="505475202#1"/>
    <trip id="truck34" type="truck_truck" depart="168.24" departLane="best" from="1102369963#1" to="-43376693#5"/>
    <trip id="truck35" type="truck_truck" depart="173.18" departLane="best" from="930343902#1" to="1252995263"/>
    <trip id="truck36" type="truck_truck" depart="178.13" departLane="best" from="-15971189" to="22972473#1"/>
    <trip id="truck38" type="truck_truck" depart="188.03" departLane="best" from="-1151064411" to="1102369967#1"/>
    <trip id="truck39" type="truck_truck" depart="192.98" departLane="best" from="81113584#0" to="4612422"/>
    <trip id="truck40" type="truck_truck" depart="197.92" departLane="best" from="-1101961674#4" to="344594961#1"/>
    <trip id="truck41" type="truck_truck" depart="202.87" departLane="best" from="251884680#1" to="158023913#1"/>
    <trip id="truck42" type="truck_truck" depart="207.82" departLane="best" from="-4610607#0" to="23755720#3"/>
    <trip id="truck43" type="truck_truck" depart="212.77" departLane="best" from="-1127602336" to="690322561"/>
    <trip id="truck46" type="truck_truck" depart="227.61" departLane="best" from="54048862#2" to="4612969#2"/>
    <trip id="truck47" type="truck_truck" depart="232.56" departLane="best" departSpeed="max" from="-4612422" to="-23755718#3"/>
    <trip id="truck48" type="truck_truck" depart="237.51" departLane="best" from="389101373#3" to="159081773"/>
    <trip id="truck49" type="truck_truck" depart="242.46" departLane="best" from="43376693#5" to="154041909"/>
    <trip id="truck50" type="truck_truck" depart="247.41" departLane="best" from="-1020977670#0" to="-66071366#1"/>
    <trip id="truck51" type="truck_truck" depart="252.35" departLane="best" departSpeed="max" from="-1102369977" to="-66071366#5"/>
    <trip id="truck55" type="truck_truck" depart="272.15" departLane="best" from="1176516118#1" to="1165450341#2"/>
    <trip id="truck56" type="truck_truck" depart="277.09" departLane="best" from="1151333059#2" to="43231842#2"/>
    <trip id="truck57" type="truck_truck" depart="282.04" departLane="best" from="-1190781965" to="-195104960#4"/>
    <trip id="truck58" type="truck_truck" depart="286.99" departLane="best" from="1151064388#1" to="15973619#9"/>
    <trip id="truck59" type="truck_truck" depart="291.94" departLane="best" departSpeed="max" from="4610524#1" to="4614664"/>
    <trip id="truck60" type="truck_truck" depart="296.89" departLane="best" from="1116360587#1" to="-43159545"/>
    <trip id="truck61" type="truck_truck" depart="301.84" departLane="best" from="-335462916" to="-52328295#2"/>
    <trip id="truck62" type="truck_truck" depart="306.78" departLane="best" from="1123184403" to="132600840#0"/>
    <trip id="truck63" type="truck_truck" depart="311.73" departLane="best" from="-65040946#6" to="195397541#4"/>
    <trip id="truck64" type="truck_truck" depart="316.68" departLane="best" from="43376693#5" to="-437325056#1"/>
    <trip id="truck65" type="truck_truck" depart="321.63" departLane="best" departSpeed="max" from="-1151333062#1" to="-23121445#0"/>
    <trip id="truck66" type="truck_truck" depart="326.58" departLane="best" from="43376693#3" to="527714921#1"/>
    <trip id="truck67" type="truck_truck" depart="331.52" departLane="best" from="4611726#1" to="-1155764611#0"/>
    <trip id="truck68" type="truck_truck" depart="336.47" departLane="best" from="-4402037#0" to="25945760#1"/>
    <trip id="truck69" type="truck_truck" depart="341.42" departLane="best" from="37289106" to="195397561#2"/>
    <trip id="truck70" type="truck_truck" depart="346.37" departLane="best" from="-66071379#1" to="173296880#0"/>
    <trip id="truck72" type="truck_truck" depart="356.26" departLane="best" from="4588215#6" to="-339201177#4"/>
    <trip id="truck73" type="truck_truck" depart="361.21" departLane="best" from="339201250#1" to="289666657"/>
    <trip id="truck74" type="truck_truck" depart="366.16" departLane="best" from="1102369965#5" to="-82652816"/>
    <trip id="truck75" type="truck_truck" depart="371.11" departLane="best" from="-4612403#5" to="-4597325#1"/>
    <trip id="truck76" type="truck_truck" depart="376.06" departLane="best" from="31313667#1" to="1136657261"/>
    <trip id="truck77" type="truck_truck" depart="381.00" departLane="best" from="1115641285#1" to="-4612410#3"/>
    <trip id="truck79" type="truck_truck" depart="390.90" departLane="best" from="1125871619#2" to="4612422"/>
    <trip id="truck80" type="truck_truck" depart="395.85" departLane="best" from="159081773" to="-1136657265#0"/>
    <trip id="truck81" type="truck_truck" depart="400.80" departLane="best" from="9657820#1" to="-4611710#0"/>
    <trip id="truck82" type="truck_truck" depart="405.75" departLane="best" from="-7913573#4" to="65040946#6"/>
    <trip id="truck83" type="truck_truck" depart="410.69" departLane="best" from="-4612403#0" to="-43231842#0"/>
    <trip id="truck84" type="truck_truck" depart="415.64" departLane="best" from="1102369965#2" to="-1151064407#0"/>
    <trip id="truck86" type="truck_truck" depart="425.54" departLane="best" from="755551646#1" to="930343901#3"/>
    <trip id="truck87" type="truck_truck" depart="430.49" departLane="best" from="15971197" to="340498988#0"/>
    <trip id="truck88" type="truck_truck" depart="435.43" departLane="best" from="22972469#1" to="-4612970#0"/>
    <trip id="truck89" type="truck_truck" depart="440.38" departLane="best" from="-7913573#4" to="194073677#3"/>
    <trip id="truck90" type="truck_truck" depart="445.33" departLane="best" from="154041918#2" to="389101365#1"/>
    <trip id="truck91" type="truck_truck" depart="450.28" departLane="best" from="375459783#1" to="-195104960#4"/>
    <trip id="truck92" type="truck_truck" depart="455.23" departLane="best" from="-1020977670#0" to="-4612410#3"/>
    <trip id="truck93" type="truck_truck" depart="460.17" departLane="best" from="195104960#3" to="289966281#0"/>
    <trip id="truck94" type="truck_truck" depart="465.12" departLane="best" from="4773029#1" to="4597324#0"/>
    <trip id="truck95" type="truck_truck" depart="470.07" departLane="best" from="195104960#3" to="206718346#3"/>
    <trip id="truck96" type="truck_truck" depart="475.02" departLane="best" from="1111982484#0" to="-195104960#3"/>
    <trip id="truck97" type="truck_truck" depart="479.97" departLane="best" from="1252995263" to="665241888#1"/>
    <trip id="truck98" type="truck_truck" depart="484.92" departLane="best" from="-4402037#1" to="1108304588#1"/>
    <trip id="truck99" type="truck_truck" depart="489.86" departLane="best" from="-47755711#0" to="415388550#1"/>
    <trip id="truck100" type="truck_truck" depart="494.81" departLane="best" departSpeed="max" from="-1151333062#1" to="1151064386#1"/>
    <trip id="truck101" type="truck_truck" depart="499.76" departLane="best" from="9657820#0" to="930343901#4"/>
    <trip id="truck102" type="truck_truck" depart="504.71" departLane="best" from="1152880160#0" to="-43159545"/>
    <trip id="truck103" type="truck_truck" depart="509.66" departLane="best" departSpeed="max" from="4610524#1" to="66071390#1"/>
    <trip id="truck106" type="truck_truck" depart="524.50" departLane="best" departSpeed="max" from="19801533" to="85255869#1"/>
    <trip id="truck107" type="truck_truck" depart="529.45" departLane="best" from="23755739#2" to="1101961674#3"/>
    <trip id="truck108" type="truck_truck" depart="534.40" departLane="best" from="4592739#3" to="-4773029#2"/>
    <trip id="truck109" type="truck_truck" depart="539.34" departLane="best" departSpeed="max" from="24214231#0" to="67627350"/>
    <trip id="truck110" type="truck_truck" depart="544.29" departLane="best" departSpeed="max" from="-195397541#4" to="168943640#0"/>
    <trip id="truck111" type="truck_truck" depart="549.24" departLane="best" from="-4611696#4" to="199847244#2"/>
    <trip id="truck112" type="truck_truck" depart="554.19" departLane="best" from="328426251#2" to="-375459781#0"/>
    <trip id="truck113" type="truck_truck" depart="559.14" departLane="best" from="328426258#0" to="-4611708#2"/>
    <trip id="truck114" type="truck_truck" depart="564.09" departLane="best" from="1151333058#1" to="527714921#1"/>
    <trip id="truck115" type="truck_truck" depart="569.03" departLane="best" from="1116360587#1" to="-4612403#5"/>
    <trip id="truck116" type="truck_truck" depart="573.98" departLane="best" from="22972469#1" to="-4611696#5"/>
    <trip id="truck117" type="truck_truck" depart="578.93" departLane="best" from="-195397539" to="160971191#2"/>
    <trip id="truck118" type="truck_truck" depart="583.88" departLane="best" from="-1152880163#1" to="4773029#2"/>
    <trip id="truck119" type="truck_truck" depart="588.83" departLane="best" departSpeed="max" from="492340367#0" to="15973619#2"/>
    <trip id="truck120" type="truck_truck" depart="593.77" departLane="best" from="-505475202#0" to="-195104960#1"/>
    <trip id="truck121" type="truck_truck" depart="598.72" departLane="best" from="-202817674#2" to="-195104960#3"/>
    <trip id="truck124" type="truck_truck" depart="613.57" departLane="best" from="437325056#0" to="-4773029#4"/>
    <trip id="truck125" type="truck_truck" depart="618.51" departLane="best" from="1105574289#0" to="210668637#1"/>
    <trip id="truck126" type="truck_truck" depart="623.46" departLane="best" from="-22972469#1" to="66071373#1"/>
    <trip id="truck127" type="truck_truck" depart="628.41" departLane="best" from="4612410#5" to="82488124#2"/>
    <trip id="truck129" type="truck_truck" depart="638.31" departLane="best" departSpeed="max" from="4403526#0" to="15973619#4"/>
    <trip id="truck130" type="truck_truck" depart="643.25" departLane="best" departSpeed="max" from="-43156537" to="4610476#1"/>
    <trip id="truck131" type="truck_truck" depart="648.20" departLane="best" from="1132678576#0" to="-492340367#0"/>
    <trip id="truck132" type="truck_truck" depart="653.15" departLane="best" from="-534588621#1" to="4612871#4"/>
    <trip id="truck133" type="truck_truck" depart="658.10" departLane="best" from="78298215#1" to="-4612410#4"/>
    <trip id="truck134" type="truck_truck" depart="663.05" departLane="best" from="23017852#1" to="1126488562"/>
    <trip id="truck136" type="truck_truck" depart="672.94" departLane="best" departSpeed="max" from="67713117" to="168943640#0"/>
    <trip id="truck138" type="truck_truck" depart="682.84" departLane="best" from="-159081777#3" to="1127595983"/>
    <trip id="truck139" type="truck_truck" depart="687.79" departLane="best" from="339201250#0" to="-55495482#0"/>
    <trip id="truck140" type="truck_truck" depart="692.74" departLane="best" from="1040940511" to="194069450#0"/>
    <trip id="truck141" type="truck_truck" depart="697.68" departLane="best" from="-4597322#0" to="339201177#2"/>
    <trip id="truck142" type="truck_truck" depart="702.63" departLane="best" departSpeed="max" from="-1020977670#1" to="65040946#4"/>
    <trip id="truck143" type="truck_truck" depart="707.58" departLane="best" from="35578576#0" to="25776568#2"/>
    <trip id="truck144" type="truck_truck" depart="712.53" departLane="best" departSpeed="max" from="-7913573#5" to="1155757393#1"/>
    <trip id="truck145" type="truck_truck" depart="717.48" departLane="best" from="24214231#1" to="707107510#1"/>
    <trip id="truck146" type="truck_truck" depart="722.42" departLane="best" from="-4773029#2" to="4611723"/>
    <trip id="truck147" type="truck_truck" depart="727.37" departLane="best" from="328426256#1" to="4773029#4"/>
    <trip id="truck149" type="truck_truck" depart="737.27" departLane="best" from="1102369965#4" to="-4612970#0"/>
    <trip id="truck150" type="truck_truck" depart="742.22" departLane="best" departSpeed="max" from="67713117" to="292429056#3"/>
    <trip id="truck151" type="truck_truck" depart="747.17" departLane="best" departSpeed="max" from="492340367#0" to="202817674#3"/>
    <trip id="truck152" type="truck_truck" depart="752.11" departLane="best" from="-4612871#0" to="-15973619#6"/>
    <trip id="truck153" type="truck_truck" depart="757.06" departLane="best" from="-1020977670#0" to="4612871#1"/>
    <trip id="truck154" type="truck_truck" depart="762.01" departLane="best" from="1125871262#1" to="43231842#0"/>
    <trip id="truck155" type="truck_truck" depart="766.96" departLane="best" from="1149417521#1" to="508410318#2"/>
    <trip id="truck157" type="truck_truck" depart="776.85" departLane="best" from="43233756#1" to="1267489731"/>
    <trip id="truck158" type="truck_truck" depart="781.80" departLane="best" from="4597322#3" to="4067932"/>
    <trip id="truck159" type="truck_truck" depart="786.75" departLane="best" from="328426193#0" to="-1115641285#1"/>
    <trip id="truck160" type="truck_truck" depart="791.70" departLane="best" from="-4566442#0" to="1151333062#1"/>
    <trip id="truck161" type="truck_truck" depart="796.65" departLane="best" from="1110749336#1" to="23017852#1"/>
    <trip id="truck162" type="truck_truck" depart="801.59" departLane="best" from="1155227488" to="-4597322#0"/>
    <trip id="truck163" type="truck_truck" depart="806.54" departLane="best" departSpeed="max" from="23809670" to="-108031933#1"/>
    <trip id="truck165" type="truck_truck" depart="816.44" departLane="best" from="-159081775#2" to="1125869405#1"/>
    <trip id="truck166" type="truck_truck" depart="821.39" departLane="best" from="4588215#4" to="4611724"/>
    <trip id="truck167" type="truck_truck" depart="826.34" departLane="best" from="195104960#4" to="68647306#4"/>
    <trip id="truck168" type="truck_truck" depart="831.28" departLane="best" from="4773029#3" to="202156994#0"/>
    <trip id="truck169" type="truck_truck" depart="836.23" departLane="best" from="328426251#2" to="1238797610#1"/>
    <trip id="truck170" type="truck_truck" depart="841.18" departLane="best" from="4610479#1" to="15973619#6"/>
    <trip id="truck171" type="truck_truck" depart="846.13" departLane="best" from="1151064386#1" to="4611693#2"/>
    <trip id="truck172" type="truck_truck" depart="851.08" departLane="best" from="4588211#1" to="23755718#1"/>
    <trip id="truck173" type="truck_truck" depart="856.02" departLane="best" from="-1190781965" to="147066248#2"/>
    <trip id="truck174" type="truck_truck" depart="860.97" departLane="best" from="-1155764611#0" to="-4612429#1"/>
    <trip id="truck176" type="truck_truck" depart="870.87" departLane="best" from="153698402#4" to="-195430954#1"/>
    <trip id="truck177" type="truck_truck" depart="875.82" departLane="best" from="437325056#0" to="327462543#0"/>
    <trip id="truck178" type="truck_truck" depart="880.76" departLane="best" from="-1127602092#0" to="-159081777#1"/>
    <trip id="truck179" type="truck_truck" depart="885.71" departLane="best" from="1170522572#0" to="327756257#2"/>
    <trip id="truck180" type="truck_truck" depart="890.66" departLane="best" from="-950222545" to="-108031933#1"/>
    <trip id="truck181" type="truck_truck" depart="895.61" departLane="best" departSpeed="max" from="-67627350" to="24240245#1"/>
    <trip id="truck182" type="truck_truck" depart="900.56" departLane="best" from="4611714#5" to="690322561"/>
    <trip id="truck183" type="truck_truck" depart="905.51" departLane="best" from="1111982484#0" to="38208961"/>
    <trip id="truck185" type="truck_truck" depart="915.40" departLane="best" from="-65040946#0" to="292429062#2"/>
    <trip id="truck186" type="truck_truck" depart="920.35" departLane="best" from="-328846996#0" to="-24242882#1"/>
    <trip id="truck187" type="truck_truck" depart="925.30" departLane="best" from="1136657266#1" to="-195104960#3"/>
    <trip id="truck188" type="truck_truck" depart="930.25" departLane="best" from="202157002#1" to="-111833185#0"/>
    <trip id="truck189" type="truck_truck" depart="935.19" departLane="best" from="110032714#3" to="-195104956#0"/>
    <trip id="truck190" type="truck_truck" depart="940.14" departLane="best" from="-1110750064" to="23755950#0"/>
    <trip id="truck191" type="truck_truck" depart="945.09" departLane="best" from="110785555#1" to="1102369965#1"/>
    <trip id="truck192" type="truck_truck" depart="950.04" departLane="best" from="35578576#3" to="66514478"/>
    <trip id="truck193" type="truck_truck" depart="954.99" departLane="best" from="389101373#1" to="1102369965#1"/>
    <trip id="truck194" type="truck_truck" depart="959.93" departLane="best" from="375311154#1" to="4611699#0"/>
    <trip id="truck195" type="truck_truck" depart="964.88" departLane="best" departSpeed="max" from="-1102369977" to="159081773"/>
    <trip id="truck196" type="truck_truck" depart="969.83" departLane="best" from="98399537" to="-930343901#0"/>
    <trip id="truck197" type="truck_truck" depart="974.78" departLane="best" from="-23755718#2" to="4403559#1"/>
    <trip id="truck199" type="truck_truck" depart="984.67" departLane="best" departSpeed="max" from="-1102369977" to="-23017852#2"/>
    <trip id="truck200" type="truck_truck" depart="989.62" departLane="best" departSpeed="max" from="160971194#0" to="-43376693#3"/>
    <trip id="truck201" type="truck_truck" depart="994.57" departLane="best" from="30705211#0" to="-437325056#1"/>
    <trip id="truck202" type="truck_truck" depart="999.52" departLane="best" from="36259520#0" to="-168935757#1"/>
    <trip id="truck204" type="truck_truck" depart="1009.42" departLane="best" from="-159081777#3" to="-111833185#0"/>
    <trip id="truck205" type="truck_truck" depart="1014.36" departLane="best" departSpeed="max" from="-465376254#3" to="292429056#3"/>
    <trip id="truck206" type="truck_truck" depart="1019.31" departLane="best" from="328426208#0" to="28251222#1"/>
    <trip id="truck208" type="truck_truck" depart="1029.21" departLane="best" from="-147066248#3" to="4396503#2"/>
    <trip id="truck209" type="truck_truck" depart="1034.16" departLane="best" from="1188351518#1" to="831694400#0"/>
    <trip id="truck210" type="truck_truck" depart="1039.10" departLane="best" from="1119837993" to="109902441"/>
    <trip id="truck211" type="truck_truck" depart="1044.05" departLane="best" from="1176516118#1" to="4612969#2"/>
    <trip id="truck212" type="truck_truck" depart="1049.00" departLane="best" from="-153698380#2" to="-1127597264#0"/>
    <trip id="truck213" type="truck_truck" depart="1053.95" departLane="best" from="-326116285#4" to="-1127596842#0"/>
    <trip id="truck215" type="truck_truck" depart="1063.84" departLane="best" from="4611693#1" to="-4597322#3"/>
    <trip id="truck216" type="truck_truck" depart="1068.79" departLane="best" from="153698394#4" to="1163350372#2"/>
    <trip id="truck217" type="truck_truck" depart="1073.74" departLane="best" from="-4612871#0" to="-356359316#2"/>
    <trip id="truck220" type="truck_truck" depart="1088.59" departLane="best" from="1073015936" to="202156991"/>
    <trip id="truck221" type="truck_truck" depart="1093.53" departLane="best" from="4611714#1" to="-326116285#4"/>
    <trip id="truck222" type="truck_truck" depart="1098.48" departLane="best" from="-66071366#3" to="465376254#0"/>
    <trip id="truck223" type="truck_truck" depart="1103.43" departLane="best" from="309644159#0" to="4612403#4"/>
    <trip id="truck224" type="truck_truck" depart="1108.38" departLane="best" from="-1101961674#1" to="681299268#1"/>
    <trip id="truck225" type="truck_truck" depart="1113.33" departLane="best" from="1176516118#1" to="344594961#0"/>
    <trip id="truck226" type="truck_truck" depart="1118.27" departLane="best" from="-1151333058#1" to="43156537"/>
    <trip id="truck227" type="truck_truck" depart="1123.22" departLane="best" from="1151333059#3" to="4566442#1"/>
    <trip id="truck229" type="truck_truck" depart="1133.12" departLane="best" from="292429056#1" to="-492340367#0"/>
    <trip id="truck230" type="truck_truck" depart="1138.07" departLane="best" from="171826985#2" to="1151333062#1"/>
    <trip id="truck231" type="truck_truck" depart="1143.01" departLane="best" from="147066248#0" to="-108031933#1"/>
    <trip id="truck232" type="truck_truck" depart="1147.96" departLane="best" from="31313667#1" to="-4611714#4"/>
    <trip id="truck233" type="truck_truck" depart="1152.91" departLane="best" from="4588215#9" to="-173296880#0"/>
    <trip id="truck234" type="truck_truck" depart="1157.86" departLane="best" from="-326116285#4" to="-169660686#0"/>
    <trip id="truck235" type="truck_truck" depart="1162.81" departLane="best" from="147066248#8" to="1126488562"/>
    <trip id="truck236" type="truck_truck" depart="1167.76" departLane="best" from="-292429062#2" to="43376477"/>
    <trip id="truck237" type="truck_truck" depart="1172.70" departLane="best" from="-1151326817#0" to="35557143#2"/>
    <trip id="truck240" type="truck_truck" depart="1187.55" departLane="best" departSpeed="max" from="-25042806" to="-1102369964"/>
    <trip id="truck241" type="truck_truck" depart="1192.50" departLane="best" from="82488125#1" to="160971198#0"/>
    <trip id="truck242" type="truck_truck" depart="1197.44" departLane="best" from="304627753#0" to="-195104960#1"/>
    <trip id="truck243" type="truck_truck" depart="1202.39" departLane="best" from="-4612416#2" to="-171484594#1"/>
    <trip id="truck244" type="truck_truck" depart="1207.34" departLane="best" from="-4612871#6" to="190447767"/>
    <trip id="truck245" type="truck_truck" depart="1212.29" departLane="best" from="1144370446" to="-1132164893#0"/>
    <trip id="truck246" type="truck_truck" depart="1217.24" departLane="best" from="-292429062#1" to="-1136657266#0"/>
    <trip id="truck247" type="truck_truck" depart="1222.18" departLane="best" departSpeed="max" from="67713117" to="1152880163#2"/>
    <trip id="truck248" type="truck_truck" depart="1227.13" departLane="best" from="-1152880161" to="23017852#1"/>
    <trip id="truck249" type="truck_truck" depart="1232.08" departLane="best" from="-1132166702#1" to="-22954356"/>
    <trip id="truck250" type="truck_truck" depart="1237.03" departLane="best" from="160971191#2" to="-492340367#0"/>
    <trip id="truck251" type="truck_truck" depart="1241.98" departLane="best" from="339201250#2" to="199847247#0"/>
    <trip id="truck253" type="truck_truck" depart="1251.87" departLane="best" from="1125871619#1" to="4612422"/>
    <trip id="truck254" type="truck_truck" depart="1256.82" departLane="best" from="35557161#4" to="67718316#1"/>
    <trip id="truck255" type="truck_truck" depart="1261.77" departLane="best" from="35557143#3" to="-43159545"/>
    <trip id="truck257" type="truck_truck" depart="1271.67" departLane="best" departSpeed="max" from="-1020977670#1" to="1136657263#2"/>
    <trip id="truck258" type="truck_truck" depart="1276.61" departLane="best" from="195104960#1" to="-4612968#0"/>
    <trip id="truck259" type="truck_truck" depart="1281.56" departLane="best" from="437325056#0" to="335462921#1"/>
    <trip id="truck261" type="truck_truck" depart="1291.46" departLane="best" departSpeed="max" from="4403526#0" to="22972469#1"/>
    <trip id="truck262" type="truck_truck" depart="1296.41" departLane="best" from="111833185#1" to="15971197"/>
    <trip id="truck263" type="truck_truck" depart="1301.35" departLane="best" from="1263480787#1" to="505475202#1"/>
    <trip id="truck264" type="truck_truck" depart="1306.30" departLane="best" from="37289167#2" to="171826984#2"/>
    <trip id="truck265" type="truck_truck" depart="1311.25" departLane="best" from="-4612410#0" to="-194962375#1"/>
    <trip id="truck268" type="truck_truck" depart="1326.09" departLane="best" departSpeed="max" from="-508410318#2" to="-4597325#5"/>
    <trip id="truck270" type="truck_truck" depart="1335.99" departLane="best" from="4610610#1" to="191556835#0"/>
    <trip id="truck271" type="truck_truck" depart="1340.94" departLane="best" from="24243092#2" to="-4611714#2"/>
    <trip id="truck272" type="truck_truck" depart="1345.89" departLane="best" departSpeed="max" from="28016312" to="43156537"/>
    <trip id="truck273" type="truck_truck" depart="1350.84" departLane="best" from="-114667396#1" to="24242892#4"/>
    <trip id="truck274" type="truck_truck" depart="1355.78" departLane="best" from="55495482#0" to="320462164#2"/>
    <trip id="truck275" type="truck_truck" depart="1360.73" departLane="best" from="190447767" to="-23121445#6"/>