<?xml version="1.0" encoding="UTF-8"?>

<!-- generated on 2024-04-23 19:46:28.811063 by osmWebWizard.py v1_19_0+0000-baa66a0f364
<configuration>
    <net-file value="F:\SUMO\OptimalEmission-SUMO-ReinforcementLearning\2024-04-23-19-46-11\osm.net.xml.gz"/>
    <output-trip-file value="F:\SUMO\OptimalEmission-SUMO-ReinforcementLearning\2024-04-23-19-46-11\osm.bus.trips.xml"/>
    <route-file value="F:\SUMO\OptimalEmission-SUMO-ReinforcementLearning\2024-04-23-19-46-11\osm.bus.rou.xml"/>
    <prefix value="bus"/>
    <trip-attributes value="departLane=&quot;best&quot;"/>
    <fringe-start-attributes value="departSpeed=&quot;max&quot;"/>
    <vehicle-class value="bus"/>
    <fringe-factor value="5"/>
    <vclass value="bus"/>
    <via-edge-types value="highway.motorway,highway.motorway_link,highway.trunk_link,highway.primary_link,highway.secondary_link,highway.tertiary_link"/>
    <min-distance value="600.0"/>
    <min-distance.fringe value="10.0"/>
    <remove-loops value="True"/>
    <validate value="True"/>
    <insertion-density value="4.0"/>
</configuration>
-->

<!-- generated on 2024-04-23 19:46:28 by Eclipse SUMO duarouter Version 1.19.0
<configuration xmlns:xsi="http://www.w3.org/2001/XMLSchema-instance" xsi:noNamespaceSchemaLocation="http://sumo.dlr.de/xsd/duarouterConfiguration.xsd">

    <input>
        <net-file value="F:\SUMO\OptimalEmission-SUMO-ReinforcementLearning\2024-04-23-19-46-11\osm.net.xml.gz"/>
        <route-files value="F:\SUMO\OptimalEmission-SUMO-ReinforcementLearning\2024-04-23-19-46-11\osm.bus.trips.xml"/>
    </input>

    <output>
        <output-file value="F:\SUMO\OptimalEmission-SUMO-ReinforcementLearning\2024-04-23-19-46-11\osm.bus.trips.xml.tmp"/>
        <alternatives-output value="NUL"/>
        <write-trips value="true"/>
    </output>

    <processing>
        <remove-loops value="true"/>
    </processing>

    <time>
        <begin value="0.0"/>
        <end value="3600.0"/>
    </time>

    <report>
        <no-warnings value="true"/>
        <ignore-errors value="true"/>
        <no-step-log value="true"/>
    </report>

</configuration>
-->

<routes xmlns:xsi="http://www.w3.org/2001/XMLSchema-instance" xsi:noNamespaceSchemaLocation="http://sumo.dlr.de/xsd/routes_file.xsd">
    <vType id="bus_bus" vClass="bus"/>
    <trip id="bus0" type="bus_bus" depart="0.00" departLane="best" from="-23017852#0" to="-111833185#0"/>
    <trip id="bus2" type="bus_bus" depart="19.76" departLane="best" from="-35557161#1" to="292429062#0"/>
    <trip id="bus3" type="bus_bus" depart="29.64" departLane="best" from="-38208961" to="1249342904#2"/>
    <trip id="bus4" type="bus_bus" depart="39.53" departLane="best" from="-1110750064" to="-37289106"/>
    <trip id="bus6" type="bus_bus" depart="59.29" departLane="best" from="4588211#0" to="328426208#0"/>
    <trip id="bus7" type="bus_bus" depart="69.17" departLane="best" from="66071366#1" to="-23121445#5"/>
    <trip id="bus8" type="bus_bus" depart="79.05" departLane="best" from="1225123597" to="-147066248#2"/>
    <trip id="bus9" type="bus_bus" depart="88.93" departLane="best" from="-153698380#2" to="8008608"/>
    <trip id="bus10" type="bus_bus" depart="98.81" departLane="best" from="930343901#0" to="160971191#3"/>
    <trip id="bus11" type="bus_bus" depart="108.69" departLane="best" from="4610476#3" to="-206718346#4"/>
    <trip id="bus12" type="bus_bus" depart="118.58" departLane="best" from="4612403#4" to="194073677#1"/>
    <trip id="bus13" type="bus_bus" depart="128.46" departLane="best" from="320462164#0" to="65040958#1"/>
    <trip id="bus14" type="bus_bus" depart="138.34" departLane="best" from="-43231842#2" to="4612871#3"/>
    <trip id="bus15" type="bus_bus" depart="148.22" departLane="best" from="-1163350372#2" to="-4474915#0"/>
    <trip id="bus16" type="bus_bus" depart="158.10" departLane="best" from="-147066248#3" to="4612403#5"/>
    <trip id="bus17" type="bus_bus" depart="167.98" departLane="best" from="-195397561#0" to="120359703"/>
    <trip id="bus19" type="bus_bus" depart="187.74" departLane="best" departSpeed="max" from="4610524#1" to="67099797#1"/>
    <trip id="bus20" type="bus_bus" depart="197.63" departLane="best" from="236092221#1" to="202156991"/>
    <trip id="bus21" type="bus_bus" depart="207.51" departLane="best" from="24913267#3" to="-356359316#1"/>
    <trip id="bus22" type="bus_bus" depart="217.39" departLane="best" from="-23755720#2" to="1102369965#1"/>
    <trip id="bus23" type="bus_bus" depart="227.27" departLane="best" from="-874528353#3" to="23755720#3"/>
    <trip id="bus24" type="bus_bus" depart="237.15" departLane="best" from="-15973619#3" to="309644159#0"/>
    <trip id="bus25" type="bus_bus" depart="247.03" departLane="best" from="4611698" to="4396503#2"/>
    <trip id="bus26" type="bus_bus" depart="256.91" departLane="best" from="-43376477" to="-1123106322#1"/>
    <trip id="bus28" type="bus_bus" depart="276.68" departLane="best" departSpeed="max" from="23809670" to="1108304588#1"/>
    <trip id="bus29" type="bus_bus" depart="286.56" departLane="best" from="541763975" to="1151064386#1"/>
    <trip id="bus30" type="bus_bus" depart="296.44" departLane="best" from="-4610480#1" to="-4597322#3"/>
    <trip id="bus31" type="bus_bus" depart="306.32" departLane="best" from="15977422#0" to="4611696#4"/>
    <trip id="bus32" type="bus_bus" depart="316.20" departLane="best" from="190447767" to="490365295#0"/>
    <trip id="bus33" type="bus_bus" depart="326.08" departLane="best" from="120675240#1" to="1132166702#2"/>
    <trip id="bus35" type="bus_bus" depart="345.84" departLane="best" from="-1101961674#4" to="344594961#1"/>
    <trip id="bus36" type="bus_bus" depart="355.73" departLane="best" from="28108856#0" to="158023913#3"/>
    <trip id="bus37" type="bus_bus" depart="365.61" departLane="best" departSpeed="max" from="4610524#1" to="-23755739#2"/>
    <trip id="bus38" type="bus_bus" depart="375.49" departLane="best" from="-1127602336" to="690322561"/>
    <trip id="bus41" type="bus_bus" depart="405.13" departLane="best" departSpeed="max" from="-4612422" to="23755720#1"/>
    <trip id="bus42" type="bus_bus" depart="415.01" departLane="best" from="196850609#2" to="-23121445#1"/>
    <trip id="bus43" type="bus_bus" depart="424.89" departLane="best" from="-389101365#3" to="36259520#0"/>
    <trip id="bus44" type="bus_bus" depart="434.78" departLane="best" from="43376693#2" to="154041912#1"/>
    <trip id="bus45" type="bus_bus" depart="444.66" departLane="best" from="-1020977670#0" to="65040946#4"/>
    <trip id="bus46" type="bus_bus" depart="454.54" departLane="best" departSpeed="max" from="-1102369977" to="-66071366#3"/>
    <trip id="bus48" type="bus_bus" depart="474.30" departLane="best" departSpeed="max" from="-4612871#8" to="-1151064407#0"/>
    <trip id="bus50" type="bus_bus" depart="494.06" departLane="best" from="1187575246" to="1165450341#2"/>
    <trip id="bus51" type="bus_bus" depart="503.94" departLane="best" from="1151333061#1" to="43156537"/>
    <trip id="bus52" type="bus_bus" depart="513.83" departLane="best" from="339201250#2" to="35578559"/>
    <trip id="bus53" type="bus_bus" depart="523.71" departLane="best" from="1151064388#1" to="15973619#9"/>
    <trip id="bus55" type="bus_bus" depart="543.47" departLane="best" from="1116358457#1" to="-424415180#0"/>
    <trip id="bus56" type="bus_bus" depart="553.35" departLane="best" from="153698402#3" to="-356359316#3"/>
    <trip id="bus57" type="bus_bus" depart="563.23" departLane="best" from="-339201177#1" to="-508410319#1"/>
    <trip id="bus58" type="bus_bus" depart="573.11" departLane="best" from="1123184403" to="132600840#0"/>
    <trip id="bus59" type="bus_bus" depart="582.99" departLane="best" from="173296880#0" to="-4401967#2"/>
    <trip id="bus60" type="bus_bus" depart="592.88" departLane="best" from="-65040946#3" to="195397541#4"/>
    <trip id="bus61" type="bus_bus" depart="602.76" departLane="best" departSpeed="max" from="-1151333062#1" to="-23121445#1"/>
    <trip id="bus62" type="bus_bus" depart="612.64" departLane="best" from="4611723" to="-1159149106#0"/>
    <trip id="bus64" type="bus_bus" depart="632.40" departLane="best" from="-375311155#1" to="-195411605#0"/>
    <trip id="bus65" type="bus_bus" depart="642.28" departLane="best" from="66071373#1" to="182623931#0"/>
    <trip id="bus67" type="bus_bus" depart="662.05" departLane="best" from="4588215#3" to="339201210"/>
    <trip id="bus68" type="bus_bus" depart="671.93" departLane="best" from="131577612#3" to="1126241276#1"/>
    <trip id="bus69" type="bus_bus" depart="681.81" departLane="best" from="339201251#1" to="289966097"/>
    <trip id="bus70" type="bus_bus" depart="691.69" departLane="best" from="1102369965#3" to="-82652816"/>
    <trip id="bus71" type="bus_bus" depart="701.57" departLane="best" from="-4612403#4" to="-4597324#1"/>
    <trip id="bus72" type="bus_bus" depart="711.45" departLane="best" from="320462164#0" to="1136657260#1"/>
    <trip id="bus73" type="bus_bus" depart="721.33" departLane="best" from="1113726463" to="-4612410#0"/>
    <trip id="bus75" type="bus_bus" depart="741.10" departLane="best" from="1125871619#1" to="4612422"/>
    <trip id="bus76" type="bus_bus" depart="750.98" departLane="best" from="159081774#2" to="-1136657266#0"/>
    <trip id="bus77" type="bus_bus" depart="760.86" departLane="best" from="9657820#1" to="4611708#1"/>
    <trip id="bus78" type="bus_bus" depart="770.74" departLane="best" from="-7913573#4" to="65040946#6"/>
    <trip id="bus79" type="bus_bus" depart="780.62" departLane="best" from="4611710#2" to="-24913267#3"/>
    <trip id="bus80" type="bus_bus" depart="790.50" departLane="best" from="-4612403#0" to="-43159545"/>
    <trip id="bus81" type="bus_bus" depart="800.38" departLane="best" from="1102369965#1" to="-1151064407#0"/>
    <trip id="bus83" type="bus_bus" depart="820.15" departLane="best" from="753730627#1" to="930343901#3"/>
    <trip id="bus84" type="bus_bus" depart="830.03" departLane="best" from="15973619#1" to="344594961#0"/>
    <trip id="bus85" type="bus_bus" depart="839.91" departLane="best" from="23017852#1" to="-4612970#0"/>
    <trip id="bus86" type="bus_bus" depart="849.79" departLane="best" from="-7913573#3" to="194073677#4"/>
    <trip id="bus88" type="bus_bus" depart="869.55" departLane="best" from="-1136657266#0" to="195397541#0"/>
    <trip id="bus89" type="bus_bus" depart="879.43" departLane="best" from="-1020977670#0" to="-4612410#0"/>
    <trip id="bus90" type="bus_bus" depart="889.31" departLane="best" from="23121445#1" to="753730627#1"/>
    <trip id="bus91" type="bus_bus" depart="899.20" departLane="best" from="-1163350372#2" to="-335462874#1"/>
    <trip id="bus92" type="bus_bus" depart="909.08" departLane="best" from="-195397541#0" to="292429056#1"/>
    <trip id="bus94" type="bus_bus" depart="928.84" departLane="best" from="47707171#1" to="-4597322#2"/>
    <trip id="bus95" type="bus_bus" depart="938.72" departLane="best" from="1110755967#1" to="-195104960#4"/>
    <trip id="bus96" type="bus_bus" depart="948.60" departLane="best" from="1252995263" to="665241888#1"/>
    <trip id="bus97" type="bus_bus" depart="958.48" departLane="best" from="-339201210" to="169195795#0"/>
    <trip id="bus98" type="bus_bus" depart="968.36" departLane="best" from="-4401967#2" to="1108304588#1"/>
    <trip id="bus99" type="bus_bus" depart="978.25" departLane="best" from="-4773029#3" to="404598738#0"/>
    <trip id="bus100" type="bus_bus" depart="988.13" departLane="best" from="1152880160#0" to="1151064386#0"/>
    <trip id="bus101" type="bus_bus" depart="998.01" departLane="best" from="9657820#0" to="930343901#4"/>
    <trip id="bus102" type="bus_bus" depart="1007.89" departLane="best" from="-1152880161" to="-43159545"/>
    <trip id="bus103" type="bus_bus" depart="1017.77" departLane="best" from="-4610480#1" to="66071390#1"/>
    <trip id="bus106" type="bus_bus" depart="1047.41" departLane="best" from="4610524#0" to="328426256#2"/>
    <trip id="bus107" type="bus_bus" depart="1057.30" departLane="best" departSpeed="max" from="19801533" to="85255869#1"/>
    <trip id="bus108" type="bus_bus" depart="1067.18" departLane="best" from="23755961#1" to="1101961674#3"/>
    <trip id="bus109" type="bus_bus" depart="1077.06" departLane="best" from="4592739#1" to="-474362271"/>
    <trip id="bus110" type="bus_bus" depart="1086.94" departLane="best" from="24234486" to="67627350"/>
    <trip id="bus111" type="bus_bus" depart="1096.82" departLane="best" departSpeed="max" from="-195397541#4" to="168943640#4"/>
    <trip id="bus112" type="bus_bus" depart="1106.70" departLane="best" from="4611693#2" to="199847241#0"/>
    <trip id="bus113" type="bus_bus" depart="1116.58" departLane="best" from="328426251#2" to="-375459782#0"/>
    <trip id="bus114" type="bus_bus" depart="1126.46" departLane="best" from="-1151333058#1" to="52328295#1"/>
    <trip id="bus115" type="bus_bus" depart="1136.35" departLane="best" from="-24997595#0" to="1151326817#2"/>
    <trip id="bus116" type="bus_bus" depart="1146.23" departLane="best" from="22972470#4" to="4611696#2"/>
    <trip id="bus117" type="bus_bus" depart="1156.11" departLane="best" from="-1152880163#2" to="4773029#1"/>
    <trip id="bus118" type="bus_bus" depart="1165.99" departLane="best" departSpeed="max" from="492340367#0" to="15973619#2"/>
    <trip id="bus119" type="bus_bus" depart="1175.87" departLane="best" from="4610524#1" to="-195104960#2"/>
    <trip id="bus120" type="bus_bus" depart="1185.75" departLane="best" from="-202817674#4" to="-195104960#4"/>
    <trip id="bus121" type="bus_bus" depart="1195.63" departLane="best" departSpeed="max" from="-4612871#8" to="505475202#1"/>
    <trip id="bus123" type="bus_bus" depart="1215.40" departLane="best" from="4840859#0" to="-424415180#0"/>
    <trip id="bus124" type="bus_bus" depart="1225.28" departLane="best" from="4612410#4" to="82488124#1"/>
    <trip id="bus125" type="bus_bus" depart="1235.16" departLane="best" from="4588219#1" to="465376255#2"/>
    <trip id="bus126" type="bus_bus" depart="1245.04" departLane="best" from="1105574291#1" to="375311153#1"/>
    <trip id="bus127" type="bus_bus" depart="1254.92" departLane="best" from="-563341815#0" to="66071379#1"/>
    <trip id="bus128" type="bus_bus" depart="1264.80" departLane="best" from="4474915#2" to="4612871#2"/>
    <trip id="bus129" type="bus_bus" depart="1274.68" departLane="best" departSpeed="max" from="4403526#0" to="15973619#6"/>
    <trip id="bus130" type="bus_bus" depart="1284.56" departLane="best" from="-389101365#3" to="4597326#1"/>
    <trip id="bus131" type="bus_bus" depart="1294.45" departLane="best" from="1132678576#0" to="47755711#4"/>
    <trip id="bus132" type="bus_bus" depart="1304.33" departLane="best" from="-52328295#2" to="4612871#2"/>
    <trip id="bus133" type="bus_bus" depart="1314.21" departLane="best" departSpeed="max" from="78298215#0" to="-4612410#1"/>
    <trip id="bus134" type="bus_bus" depart="1324.09" departLane="best" from="23017853" to="1110749960#1"/>
    <trip id="bus136" type="bus_bus" depart="1343.85" departLane="best" departSpeed="max" from="67713117" to="168943640#4"/>
    <trip id="bus137" type="bus_bus" depart="1353.73" departLane="best" from="81112790#0" to="-31313667#1"/>
    <trip id="bus139" type="bus_bus" depart="1373.50" departLane="best" from="-159081777#3" to="1127592486#1"/>
    <trip id="bus140" type="bus_bus" depart="1383.38" departLane="best" from="339201250#2" to="534588621#0"/>
    <trip id="bus141" type="bus_bus" depart="1393.26" departLane="best" from="1040930907#4" to="-194069450#1"/>
    <trip id="bus142" type="bus_bus" depart="1403.14" departLane="best" from="4588220#0" to="339201177#4"/>
    <trip id="bus143" type="bus_bus" depart="1413.02" departLane="best" departSpeed="max" from="-1020977670#1" to="65040946#3"/>
    <trip id="bus144" type="bus_bus" depart="1422.90" departLane="best" from="153698402#1" to="344594961#1"/>
    <trip id="bus145" type="bus_bus" depart="1432.78" departLane="best" from="356359316#2" to="-1171295120#0"/>
    <trip id="bus146" type="bus_bus" depart="1442.67" departLane="best" from="-7913573#3" to="-1155762025#1"/>
    <trip id="bus147" type="bus_bus" depart="1452.55" departLane="best" departSpeed="max" from="-465376254#3" to="4611722#1"/>
    <trip id="bus148" type="bus_bus" depart="1462.43" departLane="best" from="-625647965#0" to="4773029#1"/>
    <trip id="bus150" type="bus_bus" depart="1482.19" departLane="best" from="1102369965#3" to="-4612969#1"/>
    <trip id="bus151" type="bus_bus" depart="1492.07" departLane="best" departSpeed="max" from="67713117" to="292429062#1"/>
    <trip id="bus152" type="bus_bus" depart="1501.95" departLane="best" from="710761408#0" to="202817674#4"/>
    <trip id="bus153" type="bus_bus" depart="1511.83" departLane="best" departSpeed="max" from="-4612422" to="-15973619#6"/>
    <trip id="bus154" type="bus_bus" depart="1521.72" departLane="best" from="-1020977670#0" to="-4612429#1"/>
    <trip id="bus155" type="bus_bus" depart="1531.60" departLane="best" from="1119854969#1" to="194962375#1"/>
    <trip id="bus156" type="bus_bus" depart="1541.48" departLane="best" departSpeed="max" from="23809670" to="1151326817#0"/>
    <trip id="bus157" type="bus_bus" depart="1551.36" departLane="best" from="1125869405#3" to="-43159545"/>
    <trip id="bus159" type="bus_bus" depart="1571.12" departLane="best" from="1176516118#1" to="1267489731"/>
    <trip id="bus160" type="bus_bus" depart="1581.00" departLane="best" from="4592739#3" to="389101373#2"/>
    <trip id="bus161" type="bus_bus" depart="1590.88" departLane="best" from="24509317#1" to="-4401967#2"/>
    <trip id="bus162" type="bus_bus" depart="1600.77" departLane="best" from="-4474915#1" to="1151333062#1"/>
    <trip id="bus163" type="bus_bus" depart="1610.65" departLane="best" from="1110748916#1" to="23017853"/>
    <trip id="bus164" type="bus_bus" depart="1620.53" departLane="best" departSpeed="max" from="23809670" to="-108031933#1"/>
    <trip id="bus166" type="bus_bus" depart="1640.29" departLane="best" from="-159081776#0" to="1125869405#0"/>
    <trip id="bus167" type="bus_bus" depart="1650.17" departLane="best" from="24997595#1" to="751595929#1"/>
    <trip id="bus168" type="bus_bus" depart="1660.05" departLane="best" from="4588211#1" to="4611722#1"/>
    <trip id="bus170" type="bus_bus" depart="1679.82" departLane="best" from="328426258#0" to="1249342904#1"/>
    <trip id="bus171" type="bus_bus" depart="1689.70" departLane="best" from="4610476#5" to="15973619#6"/>
    <trip id="bus172" type="bus_bus" depart="1699.58" departLane="best" from="1151064386#1" to="-4610612#0"/>
    <trip id="bus173" type="bus_bus" depart="1709.46" departLane="best" from="-4566442#1" to="-23755718#2"/>
    <trip id="bus174" type="bus_bus" depart="1719.34" departLane="best" from="1159149106#0" to="4612416#2"/>
    <trip id="bus175" type="bus_bus" depart="1729.22" departLane="best" from="-4611693#1" to="625647965#1"/>
    <trip id="bus176" type="bus_bus" depart="1739.10" departLane="best" from="153698402#4" to="-197160273#1"/>
    <trip id="bus177" type="bus_bus" depart="1748.98" departLane="best" from="1105574289#1" to="-159081777#1"/>
    <trip id="bus179" type="bus_bus" depart="1768.75" departLane="best" from="1111982484#1" to="-52328295#0"/>
    <trip id="bus180" type="bus_bus" depart="1778.63" departLane="best" from="190447766#1" to="327756257#2"/>
    <trip id="bus181" type="bus_bus" depart="1788.51" departLane="best" departSpeed="max" from="-67627350" to="415388550#0"/>
    <trip id="bus186" type="bus_bus" depart="1837.92" departLane="best" from="-4612871#0" to="-111833186#1"/>
    <trip id="bus188" type="bus_bus" depart="1857.68" departLane="best" from="1136657266#1" to="-195104960#4"/>
    <trip id="bus189" type="bus_bus" depart="1867.56" departLane="best" from="202157002#2" to="-111833185#0"/>
    <trip id="bus190" type="bus_bus" depart="1877.44" departLane="best" from="110032714#2" to="169999355#1"/>
    <trip id="bus191" type="bus_bus" depart="1887.32" departLane="best" from="-1110751835#0" to="23812656"/>
    <trip id="bus192" type="bus_bus" depart="1897.20" departLane="best" from="110785555#1" to="-1102369964"/>
    <trip id="bus193" type="bus_bus" depart="1907.08" departLane="best" from="356359316#3" to="66071366#4"/>
    <trip id="bus195" type="bus_bus" depart="1926.85" departLane="best" from="375311155#0" to="4611696#5"/>
    <trip id="bus196" type="bus_bus" depart="1936.73" departLane="best" from="4588215#7" to="-1187575246"/>
    <trip id="bus197" type="bus_bus" depart="1946.61" departLane="best" departSpeed="max" from="-1102369977" to="159081774#2"/>
    <trip id="bus198" type="bus_bus" depart="1956.49" departLane="best" from="-23755720#1" to="4403559#1"/>
    <trip id="bus199" type="bus_bus" depart="1966.37" departLane="best" from="-23755720#3" to="-1190781965"/>
    <trip id="bus200" type="bus_bus" depart="1976.25" departLane="best" from="68711084#1" to="375311153#0"/>
    <trip id="bus201" type="bus_bus" depart="1986.14" departLane="best" departSpeed="max" from="-1102369977" to="-23121445#0"/>
    <trip id="bus202" type="bus_bus" depart="1996.02" departLane="best" from="195104956#1" to="25776568#2"/>
    <trip id="bus203" type="bus_bus" depart="2005.90" departLane="best" departSpeed="max" from="160971194#0" to="43376477"/>
    <trip id="bus204" type="bus_bus" depart="2015.78" departLane="best" from="309644159#0" to="-43376693#4"/>
    <trip id="bus205" type="bus_bus" depart="2025.66" departLane="best" from="37289167#5" to="168943640#0"/>
    <trip id="bus207" type="bus_bus" depart="2045.42" departLane="best" from="-159081777#3" to="-111833185#0"/>
    <trip id="bus208" type="bus_bus" depart="2055.30" departLane="best" from="328426251#0" to="28251222#1"/>
    <trip id="bus209" type="bus_bus" depart="2065.19" departLane="best" from="292429056#1" to="23013165"/>
    <trip id="bus211" type="bus_bus" depart="2084.95" departLane="best" from="4611712#0" to="196850609#2"/>
    <trip id="bus212" type="bus_bus" depart="2094.83" departLane="best" from="68711084#1" to="831694400#0"/>
    <trip id="bus214" type="bus_bus" depart="2114.59" departLane="best" from="1119837507#1" to="108488061#7"/>
    <trip id="bus215" type="bus_bus" depart="2124.47" departLane="best" from="1176516118#1" to="-82652816"/>
    <trip id="bus216" type="bus_bus" depart="2134.35" departLane="best" from="4611711#0" to="4610479#2"/>
    <trip id="bus217" type="bus_bus" depart="2144.24" departLane="best" from="-159081775#2" to="753730627#1"/>
    <trip id="bus218" type="bus_bus" depart="2154.12" departLane="best" from="-195397561#0" to="4611693#1"/>
    <trip id="bus219" type="bus_bus" depart="2164.00" departLane="best" from="326116286#0" to="-43156728#1"/>
    <trip id="bus222" type="bus_bus" depart="2193.64" departLane="best" from="153698402#1" to="1163350372#2"/>
    <trip id="bus224" type="bus_bus" depart="2213.40" departLane="best" departSpeed="max" from="4610524#1" to="4612403#5"/>
    <trip id="bus225" type="bus_bus" depart="2223.29" departLane="best" from="4610476#5" to="-1199889721#0"/>
    <trip id="bus227" type="bus_bus" depart="2243.05" departLane="best" from="-840229277#0" to="202156991"/>
    <trip id="bus228" type="bus_bus" depart="2252.93" departLane="best" from="4611713" to="-327462543#1"/>
    <trip id="bus229" type="bus_bus" depart="2262.81" departLane="best" from="37289106" to="-4588215#4"/>
    <trip id="bus230" type="bus_bus" depart="2272.69" departLane="best" from="-66071366#2" to="465376254#0"/>
    <trip id="bus231" type="bus_bus" depart="2282.57" departLane="best" from="31313667#1" to="1151326817#2"/>
    <trip id="bus232" type="bus_bus" depart="2292.45" departLane="best" from="-1101961674#1" to="67718316#1"/>
    <trip id="bus233" type="bus_bus" depart="2302.34" departLane="best" from="-1187575246" to="344594961#1"/>
    <trip id="bus234" type="bus_bus" depart="2312.22" departLane="best" from="-1151333058#1" to="43156537"/>
    <trip id="bus235" type="bus_bus" depart="2322.10" departLane="best" from="292429056#1" to="-24234486"/>
    <trip id="bus236" type="bus_bus" depart="2331.98" departLane="best" from="-1228446781#2" to="-437325055#2"/>
    <trip id="bus237" type="bus_bus" depart="2341.86" departLane="best" from="292429062#0" to="-492340367#0"/>
    <trip id="bus238" type="bus_bus" depart="2351.74" departLane="best" from="173296880#0" to="1151333062#1"/>
    <trip id="bus239" type="bus_bus" depart="2361.62" departLane="best" from="147066248#1" to="-1125869405#1"/>
    <trip id="bus240" type="bus_bus" depart="2371.50" departLane="best" from="36259518#1" to="681299268#1"/>
    <trip id="bus241" type="bus_bus" depart="2381.39" departLane="best" from="320420913#0" to="-4611714#2"/>
    <trip id="bus242" type="bus_bus" depart="2391.27" departLane="best" from="4588215#5" to="-182623931#0"/>
    <trip id="bus243" type="bus_bus" depart="2401.15" departLane="best" from="327462543#0" to="-173296880#0"/>
    <trip id="bus244" type="bus_bus" depart="2411.03" departLane="best" from="-153698380#2" to="43231842#2"/>
    <trip id="bus245" type="bus_bus" depart="2420.91" departLane="best" from="-292429063#1" to="43231842#1"/>
    <trip id="bus246" type="bus_bus" depart="2430.79" departLane="best" from="-1151326817#0" to="35557161#2"/>
    <trip id="bus248" type="bus_bus" depart="2450.55" departLane="best" from="-4611714#3" to="153698380#1"/>
    <trip id="bus249" type="bus_bus" depart="2460.44" departLane="best" from="-327756257#1" to="1151064403"/>
    <trip id="bus250" type="bus_bus" depart="2470.32" departLane="best" from="82488125#1" to="160971198#0"/>
    <trip id="bus251" type="bus_bus" depart="2480.20" departLane="best" from="305153173" to="-195104960#2"/>
    <trip id="bus252" type="bus_bus" depart="2490.08" departLane="best" from="-4612414#1" to="-171484594#1"/>
    <trip id="bus253" type="bus_bus" depart="2499.96" departLane="best" from="-4612871#3" to="190447768#1"/>
    <trip id="bus254" type="bus_bus" depart="2509.84" departLane="best" from="1144370446" to="-1132164893#2"/>
    <trip id="bus255" type="bus_bus" depart="2519.72" departLane="best" from="-292429062#3" to="-1136657266#1"/>
    <trip id="bus256" type="bus_bus" depart="2529.60" departLane="best" departSpeed="max" from="67713117" to="1152880163#2"/>
    <trip id="bus257" type="bus_bus" depart="2539.49" departLane="best" from="-1152880163#0" to="23017852#2"/>
    <trip id="bus258" type="bus_bus" depart="2549.37" departLane="best" from="160971191#3" to="-47755711#2"/>
    <trip id="bus260" type="bus_bus" depart="2569.13" departLane="best" from="1125871262#1" to="4612422"/>
    <trip id="bus262" type="bus_bus" depart="2588.89" departLane="best" from="-35557161#2" to="-424415180#0"/>
    <trip id="bus264" type="bus_bus" depart="2608.65" departLane="best" departSpeed="max" from="-1020977670#1" to="1136657263#1"/>
    <trip id="bus265" type="bus_bus" depart="2618.54" departLane="best" from="195104960#3" to="-4612968#0"/>
    <trip id="bus266" type="bus_bus" depart="2628.42" departLane="best" from="-43376693#4" to="339201177#1"/>
    <trip id="bus267" type="bus_bus" depart="2638.30" departLane="best" from="320420913#0" to="114667396#0"/>
    <trip id="bus269" type="bus_bus" depart="2658.06" departLane="best" departSpeed="max" from="4403526#0" to="22972469#2"/>
    <trip id="bus270" type="bus_bus" depart="2667.94" departLane="best" from="111833185#0" to="15973619#1"/>
    <trip id="bus271" type="bus_bus" depart="2677.82" departLane="best" from="236092221#0" to="54048862#2"/>
    <trip id="bus272" type="bus_bus" depart="2687.71" departLane="best" from="4597326#0" to="-1159156576#0"/>
    <trip id="bus273" type="bus_bus" depart="2697.59" departLane="best" from="23755739#2" to="-492340367#0"/>
    <trip id="bus274" type="bus_bus" depart="2707.47" departLane="best" from="-375311153#1" to="171826984#2"/>
    <trip id="bus275" type="bus_bus" depart="2717.35" departLane="best" from="-4612403#2" to="-195104956#0"/>
    <trip id="bus278" type="bus_bus" depart="2746.99" departLane="best" from="1152880163#2" to="43233756#1"/>
    <trip id="bus279" type="bus_bus" depart="2756.87" departLane="best" from="-508410318#1" to="-4597325#1"/>
    <trip id="bus281" type="bus_bus" depart="2776.64" departLane="best" from="-4610608" to="82488124#1"/>
    <trip id="bus282" type="bus_bus" depart="2786.52" departLane="best" from="690322561" to="98399537"/>
    <trip id="bus283" type="bus_bus" depart="2796.40" departLane="best" from="1125869405#0" to="42747980#1"/>
    <trip id="bus284" type="bus_bus" depart="2806.28" departLane="best" from="54781811" to="326116286#0"/>
    <trip id="bus285" type="bus_bus" depart="2816.16" departLane="best" from="190447768#1" to="1228609316#1"/>
    <trip id="bus286" type="bus_bus" depart="2826.04" departLane="best" departSpeed="max" from="-67099797#1" to="-751595928#1"/>
    <trip id="bus287" type="bus_bus" depart="2835.92" departLane="best" from="24243092#1" to="4612414#1"/>
    <trip id="bus288" type="bus_bus" depart="2845.81" departLane="best" from="55495482#0" to="327756257#2"/>
    <trip id="bus290" type="bus_bus" depart="2865.57" departLane="best" from="4588222#1" to="-15977422#0"/>
    <trip id="bus291" type="bus_bus" depart="2875.45" departLane="best" from="-1132164217#1" to="-534588621#1"/>
    <trip id="bus292" type="bus_bus" depart="2885.33" departLane="best" departSpeed="max" from="-508410318#2" to="7913573#5"/>
    <trip id="bus293" type="bus_bus" depart="2895.21" departLane="best" from="1102369967#1" to="1267489731"/>
    <trip id="bus294" type="bus_bus" depart="2905.09" departLane="best" from="-874528353#0" to="24992424#0"/>
    <trip id="bus295" type="bus_bus" depart="2914.97" departLane="best" from="154041920" to="1119837993"/>
    <trip id="bus298" type="bus_bus" depart="2944.62" departLane="best" from="159081772#2" to="66071366#1"/>
    <trip id="bus299" type="bus_bus" depart="2954.50" departLane="best" from="1123184403" to="328426208#0"/>