<?xml version="1.0" encoding="UTF-8"?>

<!-- generated on 2024-04-23 19:46:34.935443 by osmWebWizard.py v1_19_0+0000-baa66a0f364
<configuration>
    <net-file value="F:\SUMO\OptimalEmission-SUMO-ReinforcementLearning\2024-04-23-19-46-11\osm.net.xml.gz"/>
    <output-trip-file value="F:\SUMO\OptimalEmission-SUMO-ReinforcementLearning\2024-04-23-19-46-11\osm.passenger.trips.xml"/>
    <route-file value="F:\SUMO\OptimalEmission-SUMO-ReinforcementLearning\2024-04-23-19-46-11\osm.passenger.rou.xml"/>
    <prefix value="veh"/>
    <trip-attributes value="departLane=&quot;best&quot;"/>
    <fringe-start-attributes value="departSpeed=&quot;max&quot;"/>
    <vehicle-class value="passenger"/>
    <lanes value="True"/>
    <fringe-factor value="5"/>
    <allow-fringe.min-length value="1000.0"/>
    <via-edge-types value="highway.motorway,highway.motorway_link,highway.trunk_link,highway.primary_link,highway.secondary_link,highway.tertiary_link"/>
    <min-distance value="300.0"/>
    <min-distance.fringe value="10.0"/>
    <remove-loops value="True"/>
    <validate value="True"/>
    <insertion-density value="12.0"/>
</configuration>
-->

<!-- generated on 2024-04-23 19:46:34 by Eclipse SUMO duarouter Version 1.19.0
<configuration xmlns:xsi="http://www.w3.org/2001/XMLSchema-instance" xsi:noNamespaceSchemaLocation="http://sumo.dlr.de/xsd/duarouterConfiguration.xsd">

    <input>
        <net-file value="F:\SUMO\OptimalEmission-SUMO-ReinforcementLearning\2024-04-23-19-46-11\osm.net.xml.gz"/>
        <route-files value="F:\SUMO\OptimalEmission-SUMO-ReinforcementLearning\2024-04-23-19-46-11\osm.passenger.trips.xml"/>
    </input>

    <output>
        <output-file value="F:\SUMO\OptimalEmission-SUMO-ReinforcementLearning\2024-04-23-19-46-11\osm.passenger.trips.xml.tmp"/>
        <alternatives-output value="NUL"/>
        <write-trips value="true"/>
    </output>

    <processing>
        <remove-loops value="true"/>
    </processing>

    <time>
        <begin value="0.0"/>
        <end value="3600.0"/>
    </time>

    <report>
        <no-warnings value="true"/>
        <ignore-errors value="true"/>
        <no-step-log value="true"/>
    </report>

</configuration>
-->

<routes xmlns:xsi="http://www.w3.org/2001/XMLSchema-instance" xsi:noNamespaceSchemaLocation="http://sumo.dlr.de/xsd/routes_file.xsd">
    <vType id="veh_passenger" vClass="passenger"/>
    <trip id="veh0" type="veh_passenger" depart="0.00" departLane="best" departSpeed="max" from="24914992" to="-1119938072#1"/>
    <trip id="veh1" type="veh_passenger" depart="3.30" departLane="best" from="-534588621#1" to="-4611710#1"/>
    <trip id="veh2" type="veh_passenger" depart="6.60" departLane="best" from="37289167#5" to="327756257#2"/>
    <trip id="veh3" type="veh_passenger" depart="9.90" departLane="best" from="508410319#0" to="-15973619#3"/>
    <trip id="veh4" type="veh_passenger" depart="13.19" departLane="best" from="-4402228" to="-1127595983"/>
    <trip id="veh5" type="veh_passenger" depart="16.49" departLane="best" from="-4597324#5" to="-15977422#1"/>
    <trip id="veh6" type="veh_passenger" depart="19.79" departLane="best" from="31313667#2" to="4566442#1"/>
    <trip id="veh7" type="veh_passenger" depart="23.09" departLane="best" from="284493291#0" to="-194069450#1"/>
    <trip id="veh8" type="veh_passenger" depart="26.39" departLane="best" from="4597325#4" to="23013165"/>
    <trip id="veh9" type="veh_passenger" depart="29.69" departLane="best" from="4592739#3" to="1101961674#2"/>
    <trip id="veh10" type="veh_passenger" depart="32.99" departLane="best" from="4588222#2" to="340498976#2"/>
    <trip id="veh11" type="veh_passenger" depart="36.29" departLane="best" from="1102369965#3" to="-335462916"/>
    <trip id="veh13" type="veh_passenger" depart="42.88" departLane="best" from="-15973619#8" to="-169660686#0"/>
    <trip id="veh14" type="veh_passenger" depart="46.18" departLane="best" from="4611724" to="23755720#3"/>
    <trip id="veh15" type="veh_passenger" depart="49.48" departLane="best" from="458953718#1" to="375311153#1"/>
    <trip id="veh16" type="veh_passenger" depart="52.78" departLane="best" from="1123184404#1" to="195397541#3"/>
    <trip id="veh17" type="veh_passenger" depart="56.08" departLane="best" from="4611698" to="24242892#2"/>
    <trip id="veh19" type="veh_passenger" depart="62.68" departLane="best" from="339201177#1" to="-1151064407#0"/>
    <trip id="veh20" type="veh_passenger" depart="65.97" departLane="best" from="4611693#1" to="1136657260#1"/>
    <trip id="veh21" type="veh_passenger" depart="69.27" departLane="best" from="132600840#0" to="-4612410#0"/>
    <trip id="veh22" type="veh_passenger" depart="72.57" departLane="best" from="-194069450#1" to="-710761407#1"/>
    <trip id="veh23" type="veh_passenger" depart="75.87" departLane="best" departSpeed="max" from="24914992" to="1119935543#0"/>
    <trip id="veh24" type="veh_passenger" depart="79.17" departLane="best" from="1119937599#2" to="-4597324#6"/>
    <trip id="veh25" type="veh_passenger" depart="82.47" departLane="best" from="-505475202#1" to="67099797#1"/>
    <trip id="veh26" type="veh_passenger" depart="85.77" departLane="best" from="28108856#0" to="23851917#1"/>
    <trip id="veh27" type="veh_passenger" depart="89.07" departLane="best" from="-339201177#3" to="375311153#0"/>
    <trip id="veh28" type="veh_passenger" depart="92.36" departLane="best" from="-327756257#0" to="-108031933#1"/>
    <trip id="veh29" type="veh_passenger" depart="95.66" departLane="best" from="874528353#0" to="25776568#2"/>
    <trip id="veh30" type="veh_passenger" depart="98.96" departLane="best" from="196850608#1" to="328426208#2"/>
    <trip id="veh31" type="veh_passenger" depart="102.26" departLane="best" from="4611718#1" to="4396503#2"/>
    <trip id="veh34" type="veh_passenger" depart="112.16" departLane="best" from="4773463#1" to="1073015940#1"/>
    <trip id="veh36" type="veh_passenger" depart="118.75" departLane="best" from="606078072#1" to="1228609316#1"/>
    <trip id="veh37" type="veh_passenger" depart="122.05" departLane="best" from="-47755711#2" to="-4612970#0"/>
    <trip id="veh38" type="veh_passenger" depart="125.35" departLane="best" departSpeed="max" from="19801533" to="-55495482#0"/>
    <trip id="veh39" type="veh_passenger" depart="128.65" departLane="best" from="22972219#0" to="530085625#0"/>
    <trip id="veh40" type="veh_passenger" depart="131.95" departLane="best" from="-1132166702#1" to="4611696#2"/>
    <trip id="veh41" type="veh_passenger" depart="135.25" departLane="best" from="930343902#0" to="160971198#0"/>
    <trip id="veh42" type="veh_passenger" depart="138.55" departLane="best" from="-15973619#5" to="-1151064407#0"/>
    <trip id="veh43" type="veh_passenger" depart="141.85" departLane="best" departSpeed="max" from="-195397541#4" to="24992424#0"/>
    <trip id="veh45" type="veh_passenger" depart="148.44" departLane="best" from="-1163350372#0" to="1125871619#2"/>
    <trip id="veh46" type="veh_passenger" depart="151.74" departLane="best" from="81113584#0" to="4612969#1"/>
    <trip id="veh48" type="veh_passenger" depart="158.34" departLane="best" from="-326116286#1" to="171826984#2"/>
    <trip id="veh49" type="veh_passenger" depart="161.64" departLane="best" from="-505475202#1" to="28251222#0"/>
    <trip id="veh50" type="veh_passenger" depart="164.94" departLane="best" from="4773029#4" to="-55495482#1"/>
    <trip id="veh51" type="veh_passenger" depart="168.24" departLane="best" from="15973619#3" to="-43159545"/>
    <trip id="veh52" type="veh_passenger" depart="171.53" departLane="best" from="606078065#1" to="47707171#1"/>
    <trip id="veh53" type="veh_passenger" depart="174.83" departLane="best" departSpeed="max" from="-710342474" to="-25945966"/>
    <trip id="veh54" type="veh_passenger" depart="178.13" departLane="best" from="23851917#0" to="327756257#1"/>
    <trip id="veh55" type="veh_passenger" depart="181.43" departLane="best" from="4067932" to="-173296880#0"/>
    <trip id="veh56" type="veh_passenger" depart="184.73" departLane="best" from="437325056#0" to="171423001#3"/>
    <trip id="veh57" type="veh_passenger" depart="188.03" departLane="best" departSpeed="max" from="-1020977670#1" to="1101961674#3"/>
    <trip id="veh58" type="veh_passenger" depart="191.33" departLane="best" from="-1105574289#1" to="66071373#1"/>
    <trip id="veh59" type="veh_passenger" depart="194.63" departLane="best" from="4611723" to="-4611712#0"/>
    <trip id="veh60" type="veh_passenger" depart="197.92" departLane="best" from="-8008608" to="1163350372#0"/>
    <trip id="veh61" type="veh_passenger" depart="201.22" departLane="best" from="4773464#1" to="681299268#1"/>
    <trip id="veh62" type="veh_passenger" depart="204.52" departLane="best" from="-153698380#2" to="154041918#2"/>
    <trip id="veh63" type="veh_passenger" depart="207.82" departLane="best" from="424415180#1" to="43156537"/>
    <trip id="veh64" type="veh_passenger" depart="211.12" departLane="best" from="424415180#1" to="23755718#2"/>
    <trip id="veh65" type="veh_passenger" depart="214.42" departLane="best" from="147066248#2" to="-195104960#2"/>
    <trip id="veh66" type="veh_passenger" depart="217.72" departLane="best" from="-47755711#2" to="4773029#3"/>
    <trip id="veh67" type="veh_passenger" depart="221.02" departLane="best" departSpeed="max" from="1151064405" to="-4597326#0"/>
    <trip id="veh68" type="veh_passenger" depart="224.31" departLane="best" from="190447768#1" to="375311153#1"/>
    <trip id="veh69" type="veh_passenger" depart="227.61" departLane="best" from="-4402014#3" to="1040940511"/>
    <trip id="veh70" type="veh_passenger" depart="230.91" departLane="best" from="-930343901#0" to="289966281#3"/>
    <trip id="veh71" type="veh_passenger" depart="234.21" departLane="best" from="1159149106#0" to="160971199#0"/>
    <trip id="veh72" type="veh_passenger" depart="237.51" departLane="best" from="-202817674#3" to="-4611711#1"/>
    <trip id="veh73" type="veh_passenger" depart="240.81" departLane="best" from="1102369963#1" to="22972473#1"/>
    <trip id="veh74" type="veh_passenger" depart="244.11" departLane="best" from="-1191472404" to="24992424#3"/>
    <trip id="veh75" type="veh_passenger" depart="247.41" departLane="best" from="-4611696#3" to="-55495482#1"/>
    <trip id="veh76" type="veh_passenger" depart="250.70" departLane="best" from="-4612871#4" to="120675240#1"/>
    <trip id="veh77" type="veh_passenger" depart="254.00" departLane="best" from="-4611714#6" to="-320462164#1"/>
    <trip id="veh78" type="veh_passenger" depart="257.30" departLane="best" from="-4588220#1" to="23755961#1"/>
    <trip id="veh79" type="veh_passenger" depart="260.60" departLane="best" departSpeed="max" from="67713117" to="202156991"/>
    <trip id="veh81" type="veh_passenger" depart="267.20" departLane="best" from="-458953719#0" to="4402037#0"/>
    <trip id="veh83" type="veh_passenger" depart="273.80" departLane="best" departSpeed="max" from="1151064405" to="1256804153"/>
    <trip id="veh84" type="veh_passenger" depart="277.09" departLane="best" from="36259516#0" to="-335462874#1"/>
    <trip id="veh85" type="veh_passenger" depart="280.39" departLane="best" from="339201219" to="-176273730#1"/>
    <trip id="veh86" type="veh_passenger" depart="283.69" departLane="best" from="1132678576#0" to="-1132164863"/>
    <trip id="veh87" type="veh_passenger" depart="286.99" departLane="best" from="-43231842#1" to="1195383176"/>
    <trip id="veh88" type="veh_passenger" depart="290.29" departLane="best" from="-4402228" to="-751595930"/>
    <trip id="veh89" type="veh_passenger" depart="293.59" departLane="best" departSpeed="max" from="-4612422" to="625843712"/>
    <trip id="veh90" type="veh_passenger" depart="296.89" departLane="best" from="-1020977670#0" to="4612969#2"/>
    <trip id="veh91" type="veh_passenger" depart="300.19" departLane="best" from="195411604" to="-1151333057#1"/>
    <trip id="veh92" type="veh_passenger" depart="303.48" departLane="best" from="9657820#1" to="4611714#7"/>
    <trip id="veh93" type="veh_passenger" depart="306.78" departLane="best" from="-8008608" to="65040946#6"/>
    <trip id="veh94" type="veh_passenger" depart="310.08" departLane="best" from="4611724" to="-356359316#3"/>
    <trip id="veh95" type="veh_passenger" depart="313.38" departLane="best" from="154041920" to="4610524#0"/>
    <trip id="veh97" type="veh_passenger" depart="319.98" departLane="best" from="1123184404#2" to="831694400#1"/>
    <trip id="veh98" type="veh_passenger" depart="323.28" departLane="best" from="47755711#3" to="4403559#1"/>
    <trip id="veh99" type="veh_passenger" depart="326.58" departLane="best" from="1199404285" to="1151326817#1"/>
    <trip id="veh101" type="veh_passenger" depart="333.17" departLane="best" from="196850607#1" to="36259509#0"/>
    <trip id="veh102" type="veh_passenger" depart="336.47" departLane="best" from="-292429063#1" to="-9657820#0"/>
    <trip id="veh103" type="veh_passenger" depart="339.77" departLane="best" from="194073677#0" to="375312063#2"/>
    <trip id="veh104" type="veh_passenger" depart="343.07" departLane="best" departSpeed="max" from="-1151333062#1" to="22954357#1"/>
    <trip id="veh105" type="veh_passenger" depart="346.37" departLane="best" from="15973619#8" to="4612422"/>
    <trip id="veh106" type="veh_passenger" depart="349.67" departLane="best" from="492340367#2" to="753730627#1"/>
    <trip id="veh107" type="veh_passenger" depart="352.97" departLane="best" from="-132600840#1" to="-437325056#1"/>
    <trip id="veh108" type="veh_passenger" depart="356.26" departLane="best" from="233833576#0" to="-327462543#1"/>
    <trip id="veh109" type="veh_passenger" depart="359.56" departLane="best" from="-4611714#0" to="-22954356"/>
    <trip id="veh110" type="veh_passenger" depart="362.86" departLane="best" departSpeed="max" from="492340367#0" to="-4612970#0"/>
    <trip id="veh111" type="veh_passenger" depart="366.16" departLane="best" from="233833576#0" to="24242892#3"/>
    <trip id="veh112" type="veh_passenger" depart="369.46" departLane="best" from="1170522567#0" to="216524084#2"/>
    <trip id="veh113" type="veh_passenger" depart="372.76" departLane="best" from="-4412868#2" to="-356359316#2"/>
    <trip id="veh114" type="veh_passenger" depart="376.06" departLane="best" from="-4611714#7" to="-1132164282#0"/>
    <trip id="veh115" type="veh_passenger" depart="379.36" departLane="best" from="31313667#1" to="1025851953"/>
    <trip id="veh116" type="veh_passenger" depart="382.65" departLane="best" from="-930343901#0" to="404598738#0"/>
    <trip id="veh117" type="veh_passenger" depart="385.95" departLane="best" from="1196257170" to="1228469479#1"/>
    <trip id="veh118" type="veh_passenger" depart="389.25" departLane="best" from="950222545" to="930343901#2"/>
    <trip id="veh119" type="veh_passenger" depart="392.55" departLane="best" from="707100745#1" to="4610524#0"/>
    <trip id="veh120" type="veh_passenger" depart="395.85" departLane="best" from="-47755711#3" to="66071390#1"/>
    <trip id="veh121" type="veh_passenger" depart="399.15" departLane="best" from="1119937599#2" to="-339201177#4"/>
    <trip id="veh122" type="veh_passenger" depart="402.45" departLane="best" from="4611708#1" to="344594961#0"/>
    <trip id="veh123" type="veh_passenger" depart="405.75" departLane="best" from="23851917#1" to="840229275#1"/>
    <trip id="veh125" type="veh_passenger" depart="412.34" departLane="best" from="4610476#0" to="1020977670#1"/>
    <trip id="veh126" type="veh_passenger" depart="415.64" departLane="best" from="304627753#0" to="67627350"/>
    <trip id="veh127" type="veh_passenger" depart="418.94" departLane="best" from="1263480787#1" to="-202817674#4"/>
    <trip id="veh128" type="veh_passenger" depart="422.24" departLane="best" from="52328295#0" to="-23755739#2"/>
    <trip id="veh129" type="veh_passenger" depart="425.54" departLane="best" departSpeed="max" from="24914992" to="-55495482#3"/>
    <trip id="veh131" type="veh_passenger" depart="432.14" departLane="best" from="4611723" to="168935756#0"/>
    <trip id="veh132" type="veh_passenger" depart="435.43" departLane="best" departSpeed="max" from="1151064405" to="707107510#1"/>
    <trip id="veh134" type="veh_passenger" depart="442.03" departLane="best" departSpeed="max" from="24914992" to="-534588621#1"/>
    <trip id="veh135" type="veh_passenger" depart="445.33" departLane="best" from="375311154#1" to="195397541#2"/>
    <trip id="veh136" type="veh_passenger" depart="448.63" departLane="best" from="55495482#1" to="194073677#0"/>
    <trip id="veh137" type="veh_passenger" depart="451.93" departLane="best" from="4611710#0" to="210668637#1"/>
    <trip id="veh138" type="veh_passenger" depart="455.23" departLane="best" departSpeed="max" from="-25042806" to="-23121445#6"/>
    <trip id="veh139" type="veh_passenger" depart="458.53" departLane="best" from="81113584#0" to="-534588621#1"/>
    <trip id="veh140" type="veh_passenger" depart="461.82" departLane="best" from="448810728" to="4612969#0"/>
    <trip id="veh141" type="veh_passenger" depart="465.12" departLane="best" from="54048862#2" to="-4597325#1"/>
    <trip id="veh142" type="veh_passenger" depart="468.42" departLane="best" departSpeed="max" from="-4612422" to="-195104960#0"/>
    <trip id="veh144" type="veh_passenger" depart="475.02" departLane="best" from="-292429063#0" to="66071379#1"/>
    <trip id="veh146" type="veh_passenger" depart="481.62" departLane="best" from="4597322#3" to="4840859#2"/>
    <trip id="veh147" type="veh_passenger" depart="484.92" departLane="best" from="111833185#1" to="375311155#0"/>
    <trip id="veh148" type="veh_passenger" depart="488.21" departLane="best" from="4588215#6" to="4614664"/>
    <trip id="veh151" type="veh_passenger" depart="498.11" departLane="best" from="465376240#0" to="4612871#8"/>
    <trip id="veh152" type="veh_passenger" depart="501.41" departLane="best" from="122820534#1" to="1025851953"/>
    <trip id="veh153" type="veh_passenger" depart="504.71" departLane="best" from="4474915#2" to="-4611714#4"/>
    <trip id="veh155" type="veh_passenger" depart="511.31" departLane="best" from="1079386660" to="4614664"/>
    <trip id="veh156" type="veh_passenger" depart="514.60" departLane="best" from="78298215#1" to="-751595930"/>
    <trip id="veh157" type="veh_passenger" depart="517.90" departLane="best" from="82654059#1" to="171826984#2"/>
    <trip id="veh158" type="veh_passenger" depart="521.20" departLane="best" from="681299268#1" to="-202817674#4"/>
    <trip id="veh159" type="veh_passenger" depart="524.50" departLane="best" departSpeed="max" from="78298215#0" to="-563341815#2"/>
    <trip id="veh160" type="veh_passenger" depart="527.80" departLane="best" from="36259509#2" to="1053026513#1"/>
    <trip id="veh161" type="veh_passenger" depart="531.10" departLane="best" departSpeed="max" from="23809670" to="160971199#0"/>
    <trip id="veh163" type="veh_passenger" depart="537.70" departLane="best" departSpeed="max" from="-4612871#8" to="344594961#1"/>
    <trip id="veh164" type="veh_passenger" depart="540.99" departLane="best" departSpeed="max" from="-1020977670#1" to="65040946#3"/>
    <trip id="veh165" type="veh_passenger" depart="544.29" departLane="best" from="190447766#1" to="36259509#2"/>
    <trip id="veh166" type="veh_passenger" depart="547.59" departLane="best" from="375311154#3" to="-320462164#3"/>
    <trip id="veh167" type="veh_passenger" depart="550.89" departLane="best" from="1119838636#1" to="-1199889721#0"/>
    <trip id="veh168" type="veh_passenger" depart="554.19" departLane="best" from="85255870#0" to="-4612410#4"/>
    <trip id="veh169" type="veh_passenger" depart="557.49" departLane="best" from="-35557161#2" to="1025851953"/>
    <trip id="veh171" type="veh_passenger" depart="564.09" departLane="best" from="1132678576#0" to="-930343901#4"/>
    <trip id="veh172" type="veh_passenger" depart="567.38" departLane="best" from="-23017852#2" to="-195105328"/>
    <trip id="veh173" type="veh_passenger" depart="570.68" departLane="best" from="68647306#3" to="327756257#2"/>
    <trip id="veh174" type="veh_passenger" depart="573.98" departLane="best" from="541763977#1" to="24242882#1"/>
    <trip id="veh175" type="veh_passenger" depart="577.28" departLane="best" from="-1020977670#0" to="82658671#1"/>
    <trip id="veh176" type="veh_passenger" depart="580.58" departLane="best" from="-1151333057#1" to="206718346#0"/>
    <trip id="veh178" type="veh_passenger" depart="587.18" departLane="best" from="-1165450341#0" to="4610524#0"/>
    <trip id="veh179" type="veh_passenger" depart="590.48" departLane="best" from="448810728" to="375311158#2"/>
    <trip id="veh180" type="veh_passenger" depart="593.77" departLane="best" from="-147066248#8" to="160971199#0"/>
    <trip id="veh181" type="veh_passenger" depart="597.07" departLane="best" from="24913519#1" to="1105574289#0"/>
    <trip id="veh182" type="veh_passenger" depart="600.37" departLane="best" from="4610476#3" to="389101373#2"/>
    <trip id="veh183" type="veh_passenger" depart="603.67" departLane="best" from="48859715#2" to="-4611711#1"/>
    <trip id="veh184" type="veh_passenger" depart="606.97" departLane="best" from="-4396109" to="169999355#1"/>
    <trip id="veh185" type="veh_passenger" depart="610.27" departLane="best" from="-4612410#6" to="136571494#1"/>
    <trip id="veh186" type="veh_passenger" depart="613.57" departLane="best" from="4611726#1" to="-1228446781#2"/>
    <trip id="veh187" type="veh_passenger" depart="616.87" departLane="best" from="1144370446" to="24992424#3"/>
    <trip id="veh188" type="veh_passenger" depart="620.16" departLane="best" from="437325055#1" to="339201250#0"/>
    <trip id="veh189" type="veh_passenger" depart="623.46" departLane="best" from="36259520#0" to="-4612968#0"/>
    <trip id="veh192" type="veh_passenger" depart="633.36" departLane="best" from="1151064407#2" to="-1151333057#1"/>
    <trip id="veh193" type="veh_passenger" depart="636.66" departLane="best" from="-35557161#3" to="-753316506#1"/>
    <trip id="veh194" type="veh_passenger" depart="639.96" departLane="best" from="160971198#0" to="-1151333057#0"/>
    <trip id="veh195" type="veh_passenger" depart="643.25" departLane="best" departSpeed="max" from="-4612422" to="4612410#5"/>
    <trip id="veh196" type="veh_passenger" depart="646.55" departLane="best" from="120359703" to="4588222#2"/>
    <trip id="veh197" type="veh_passenger" depart="649.85" departLane="best" from="30705211#1" to="85255869#1"/>
    <trip id="veh198" type="veh_passenger" depart="653.15" departLane="best" from="233833576#0" to="68647306#7"/>
    <trip id="veh200" type="veh_passenger" depart="659.75" departLane="best" from="-35557161#1" to="-15977422#0"/>
    <trip id="veh201" type="veh_passenger" depart="663.05" departLane="best" from="4611699#0" to="194962375#1"/>
    <trip id="veh202" type="veh_passenger" depart="666.35" departLane="best" from="534588621#0" to="375311158#2"/>
    <trip id="veh203" type="veh_passenger" depart="669.64" departLane="best" from="147066248#1" to="-508410319#2"/>
    <trip id="veh204" type="veh_passenger" depart="672.94" departLane="best" from="-4612416#0" to="25776568#2"/>
    <trip id="veh205" type="veh_passenger" depart="676.24" departLane="best" from="424323348" to="168515533#2"/>
    <trip id="veh206" type="veh_passenger" depart="679.54" departLane="best" from="24242892#3" to="67099789#1"/>
    <trip id="veh207" type="veh_passenger" depart="682.84" departLane="best" from="-1228769796#0" to="-82652816"/>
    <trip id="veh208" type="veh_passenger" depart="686.14" departLane="best" from="-4611708#0" to="339201210"/>
    <trip id="veh209" type="veh_passenger" depart="689.44" departLane="best" from="1133457733" to="190447768#1"/>
    <trip id="veh210" type="veh_passenger" depart="692.74" departLane="best" from="-114667396#0" to="-4597322#2"/>
    <trip id="veh211" type="veh_passenger" depart="696.03" departLane="best" from="1151064386#1" to="-55495482#0"/>
    <trip id="veh212" type="veh_passenger" depart="699.33" departLane="best" from="195411604" to="831694400#0"/>
    <trip id="veh213" type="veh_passenger" depart="702.63" departLane="best" from="-4612416#1" to="43376477"/>
    <trip id="veh214" type="veh_passenger" depart="705.93" departLane="best" from="1125869405#0" to="1101961674#1"/>
    <trip id="veh215" type="veh_passenger" depart="709.23" departLane="best" from="1110749960#1" to="404598738#0"/>
    <trip id="veh216" type="veh_passenger" depart="712.53" departLane="best" from="4612410#5" to="-710761406#1"/>
    <trip id="veh217" type="veh_passenger" depart="715.83" departLane="best" from="1149417521#1" to="375312063#2"/>
    <trip id="veh218" type="veh_passenger" depart="719.13" departLane="best" from="195104960#1" to="23755720#2"/>
    <trip id="veh219" type="veh_passenger" depart="722.42" departLane="best" from="4597325#4" to="4611696#2"/>
    <trip id="veh220" type="veh_passenger" depart="725.72" departLane="best" from="1155227488" to="-1126465703#0"/>
    <trip id="veh221" type="veh_passenger" depart="729.02" departLane="best" from="-1101961737" to="-328426193#1"/>
    <trip id="veh223" type="veh_passenger" depart="735.62" departLane="best" from="1253434857" to="23755718#1"/>
    <trip id="veh224" type="veh_passenger" depart="738.92" departLane="best" from="24240246#1" to="-1123106898#1"/>
    <trip id="veh226" type="veh_passenger" depart="745.52" departLane="best" from="-1119933622" to="606078072#1"/>
    <trip id="veh227" type="veh_passenger" depart="748.81" departLane="best" from="-23755950#1" to="1249342904#2"/>
    <trip id="veh228" type="veh_passenger" depart="752.11" departLane="best" from="-1151064402#1" to="1125869405#1"/>
    <trip id="veh229" type="veh_passenger" depart="755.41" departLane="best" from="4588215#5" to="-1102369945#1"/>
    <trip id="veh230" type="veh_passenger" depart="758.71" departLane="best" from="404598738#0" to="1125869405#3"/>
    <trip id="veh231" type="veh_passenger" depart="762.01" departLane="best" from="-4612871#1" to="153698380#1"/>
    <trip id="veh232" type="veh_passenger" depart="765.31" departLane="best" from="1105574289#1" to="-173296880#0"/>
    <trip id="veh233" type="veh_passenger" depart="768.61" departLane="best" from="284493291#0" to="4402037#2"/>
    <trip id="veh235" type="veh_passenger" depart="775.20" departLane="best" from="753316505#1" to="-4579366"/>
    <trip id="veh236" type="veh_passenger" depart="778.50" departLane="best" from="-1105574291#1" to="1132167972#1"/>
    <trip id="veh237" type="veh_passenger" depart="781.80" departLane="best" from="-23017852#0" to="-320462164#1"/>
    <trip id="veh238" type="veh_passenger" depart="785.10" departLane="best" departSpeed="max" from="19801533" to="4611693#1"/>
    <trip id="veh239" type="veh_passenger" depart="788.40" departLane="best" from="328426251#1" to="43376693#3"/>
    <trip id="veh240" type="veh_passenger" depart="791.70" departLane="best" from="-328846996#0" to="23851917#0"/>
    <trip id="veh241" type="veh_passenger" depart="795.00" departLane="best" from="375311156#2" to="-202817674#2"/>
    <trip id="veh243" type="veh_passenger" depart="801.59" departLane="best" from="-195397541#3" to="-1120532695"/>
    <trip id="veh244" type="veh_passenger" depart="804.89" departLane="best" from="-840229277#0" to="327756257#2"/>
    <trip id="veh246" type="veh_passenger" depart="811.49" departLane="best" from="340498988#0" to="-131577612#3"/>
    <trip id="veh247" type="veh_passenger" depart="814.79" departLane="best" departSpeed="max" from="328064918#0" to="24992424#0"/>
    <trip id="veh249" type="veh_passenger" depart="821.39" departLane="best" from="-4612403#2" to="1119936840#1"/>
    <trip id="veh250" type="veh_passenger" depart="824.69" departLane="best" from="-202817674#3" to="-82658674#4"/>
    <trip id="veh251" type="veh_passenger" depart="827.98" departLane="best" from="4402037#1" to="1108304588#1"/>
    <trip id="veh252" type="veh_passenger" depart="831.28" departLane="best" from="-4612403#0" to="-1120532695"/>
    <trip id="veh253" type="veh_passenger" depart="834.58" departLane="best" from="160971191#3" to="110786129#1"/>
    <trip id="veh254" type="veh_passenger" depart="837.88" departLane="best" from="4611726#1" to="-4611696#3"/>
    <trip id="veh255" type="veh_passenger" depart="841.18" departLane="best" from="195104960#3" to="753730627#1"/>
    <trip id="veh256" type="veh_passenger" depart="844.48" departLane="best" departSpeed="max" from="24914992" to="4611708#1"/>
    <trip id="veh258" type="veh_passenger" depart="851.08" departLane="best" departSpeed="max" from="-508410318#2" to="-4597324#6"/>
    <trip id="veh259" type="veh_passenger" depart="854.37" departLane="best" from="188386313#1" to="153698402#4"/>
    <trip id="veh260" type="veh_passenger" depart="857.67" departLane="best" from="1155227488" to="375311154#0"/>
    <trip id="veh261" type="veh_passenger" depart="860.97" departLane="best" from="-508410318#1" to="4612416#2"/>
    <trip id="veh262" type="veh_passenger" depart="864.27" departLane="best" from="4611699#0" to="15973619#3"/>
    <trip id="veh263" type="veh_passenger" depart="867.57" departLane="best" from="47755711#2" to="-4612968#0"/>
    <trip id="veh264" type="veh_passenger" depart="870.87" departLane="best" from="1249342904#2" to="23851930"/>
    <trip id="veh265" type="veh_passenger" depart="874.17" departLane="best" from="1123184404#2" to="-1126465703#0"/>
    <trip id="veh266" type="veh_passenger" depart="877.47" departLane="best" from="4612403#4" to="-43231842#3"/>
    <trip id="veh267" type="veh_passenger" depart="880.76" departLane="best" from="328426256#1" to="-681299268#1"/>
    <trip id="veh268" type="veh_passenger" depart="884.06" departLane="best" from="-1101961735#0" to="68647306#3"/>
    <trip id="veh269" type="veh_passenger" depart="887.36" departLane="best" from="-153698380#2" to="36259509#2"/>