<?xml version="1.0" encoding="UTF-8"?>

<!-- generated on 2024-04-25 12:20:36.070004 by osmWebWizard.py v1_19_0+0000-baa66a0f364
<configuration>
    <net-file value="F:\SUMO\OptimalEmission-SUMO-ReinforcementLearning\2024-04-25-12-20-28\osm.net.xml.gz"/>
    <output-trip-file value="F:\SUMO\OptimalEmission-SUMO-ReinforcementLearning\2024-04-25-12-20-28\osm.bus.trips.xml"/>
    <route-file value="F:\SUMO\OptimalEmission-SUMO-ReinforcementLearning\2024-04-25-12-20-28\osm.bus.rou.xml"/>
    <prefix value="bus"/>
    <trip-attributes value="departLane=&quot;best&quot;"/>
    <fringe-start-attributes value="departSpeed=&quot;max&quot;"/>
    <vehicle-class value="bus"/>
    <fringe-factor value="5"/>
    <vclass value="bus"/>
    <via-edge-types value="highway.motorway,highway.motorway_link,highway.trunk_link,highway.primary_link,highway.secondary_link,highway.tertiary_link"/>
    <min-distance value="600.0"/>
    <min-distance.fringe value="10.0"/>
    <remove-loops value="True"/>
    <validate value="True"/>
    <end value="60000.0"/>
    <insertion-density value="4.0"/>
</configuration>
-->

<!-- generated on 2024-04-25 12:20:35 by Eclipse SUMO duarouter Version 1.19.0
<configuration xmlns:xsi="http://www.w3.org/2001/XMLSchema-instance" xsi:noNamespaceSchemaLocation="http://sumo.dlr.de/xsd/duarouterConfiguration.xsd">

    <input>
        <net-file value="F:\SUMO\OptimalEmission-SUMO-ReinforcementLearning\2024-04-25-12-20-28\osm.net.xml.gz"/>
        <route-files value="F:\SUMO\OptimalEmission-SUMO-ReinforcementLearning\2024-04-25-12-20-28\osm.bus.trips.xml"/>
    </input>

    <output>
        <output-file value="F:\SUMO\OptimalEmission-SUMO-ReinforcementLearning\2024-04-25-12-20-28\osm.bus.trips.xml.tmp"/>
        <alternatives-output value="NUL"/>
        <write-trips value="true"/>
    </output>

    <processing>
        <remove-loops value="true"/>
    </processing>

    <time>
        <begin value="0.0"/>
        <end value="60000.0"/>
    </time>

    <report>
        <no-warnings value="true"/>
        <ignore-errors value="true"/>
        <no-step-log value="true"/>
    </report>

</configuration>
-->

<routes xmlns:xsi="http://www.w3.org/2001/XMLSchema-instance" xsi:noNamespaceSchemaLocation="http://sumo.dlr.de/xsd/routes_file.xsd">
    <vType id="bus_bus" vClass="bus"/>
    <trip id="bus1" type="bus_bus" depart="8.09" departLane="best" departSpeed="max" from="27853330" to="270376454"/>
    <trip id="bus4" type="bus_bus" depart="32.35" departLane="best" departSpeed="max" from="270392630" to="256507648"/>
    <trip id="bus5" type="bus_bus" depart="40.44" departLane="best" departSpeed="max" from="24959485" to="270367419"/>
    <trip id="bus6" type="bus_bus" depart="48.53" departLane="best" departSpeed="max" from="4366988" to="270376454"/>
    <trip id="bus10" type="bus_bus" depart="80.88" departLane="best" departSpeed="max" from="4366988" to="270376454"/>
    <trip id="bus15" type="bus_bus" depart="121.33" departLane="best" departSpeed="max" from="27853330" to="160247335"/>
    <trip id="bus17" type="bus_bus" depart="137.50" departLane="best" departSpeed="max" from="270392630" to="270367419"/>
    <trip id="bus18" type="bus_bus" depart="145.59" departLane="best" departSpeed="max" from="135254875" to="270376454"/>
    <trip id="bus19" type="bus_bus" depart="153.68" departLane="best" departSpeed="max" from="135254875" to="24960346"/>
    <trip id="bus20" type="bus_bus" depart="161.77" departLane="best" departSpeed="max" from="5081498#0" to="270367419"/>
    <trip id="bus21" type="bus_bus" depart="169.86" departLane="best" departSpeed="max" from="270367431" to="270376454"/>
    <trip id="bus22" type="bus_bus" depart="177.94" departLane="best" departSpeed="max" from="4366988" to="270376454"/>
    <trip id="bus27" type="bus_bus" depart="218.39" departLane="best" departSpeed="max" from="270367431" to="24959390"/>
    <trip id="bus33" type="bus_bus" depart="266.92" departLane="best" departSpeed="max" from="270392630" to="256507648"/>
    <trip id="bus34" type="bus_bus" depart="275.00" departLane="best" departSpeed="max" from="24959485" to="270367419"/>
    <trip id="bus35" type="bus_bus" depart="283.09" departLane="best" departSpeed="max" from="135254875" to="24960346"/>
    <trip id="bus36" type="bus_bus" depart="291.18" departLane="best" departSpeed="max" from="256507659" to="8094395"/>
    <trip id="bus39" type="bus_bus" depart="315.45" departLane="best" departSpeed="max" from="24959485" to="270367419"/>
    <trip id="bus40" type="bus_bus" depart="323.53" departLane="best" departSpeed="max" from="270392630" to="23886552"/>
    <trip id="bus48" type="bus_bus" depart="388.24" departLane="best" departSpeed="max" from="256507659" to="23886552"/>
    <trip id="bus49" type="bus_bus" depart="396.33" departLane="best" departSpeed="max" from="270367431" to="270376454"/>
    <trip id="bus50" type="bus_bus" depart="404.42" departLane="best" departSpeed="max" from="5081498#0" to="270367419"/>
    <trip id="bus51" type="bus_bus" depart="412.51" departLane="best" departSpeed="max" from="24960184" to="270367419"/>
    <trip id="bus53" type="bus_bus" depart="428.68" departLane="best" departSpeed="max" from="132846158" to="270367419"/>
    <trip id="bus56" type="bus_bus" depart="452.95" departLane="best" departSpeed="max" from="5081498#0" to="270367419"/>
    <trip id="bus59" type="bus_bus" depart="477.21" departLane="best" departSpeed="max" from="27853330" to="270376454"/>
    <trip id="bus64" type="bus_bus" depart="517.66" departLane="best" departSpeed="max" from="270367431" to="160247335"/>
    <trip id="bus65" type="bus_bus" depart="525.74" departLane="best" departSpeed="max" from="5081498#0" to="8094395"/>
    <trip id="bus67" type="bus_bus" depart="541.92" departLane="best" departSpeed="max" from="256507659" to="23886552"/>
    <trip id="bus68" type="bus_bus" depart="550.01" departLane="best" departSpeed="max" from="24960184" to="8094395"/>
    <trip id="bus71" type="bus_bus" depart="574.27" departLane="best" departSpeed="max" from="5081498#0" to="8094395"/>
    <trip id="bus72" type="bus_bus" depart="582.36" departLane="best" departSpeed="max" from="270367431" to="270376454"/>
    <trip id="bus73" type="bus_bus" depart="590.45" departLane="best" departSpeed="max" from="5081498#0" to="270367419"/>
    <trip id="bus74" type="bus_bus" depart="598.54" departLane="best" departSpeed="max" from="270367431" to="270376454"/>
    <trip id="bus75" type="bus_bus" depart="606.63" departLane="best" departSpeed="max" from="132846158" to="270367419"/>
    <trip id="bus78" type="bus_bus" depart="630.89" departLane="best" departSpeed="max" from="270367431" to="270376454"/>
    <trip id="bus81" type="bus_bus" depart="655.16" departLane="best" departSpeed="max" from="256507659" to="270367419"/>
    <trip id="bus88" type="bus_bus" depart="711.78" departLane="best" departSpeed="max" from="5081498#0" to="8094395"/>
    <trip id="bus90" type="bus_bus" depart="727.95" departLane="best" departSpeed="max" from="4366988" to="270376454"/>
    <trip id="bus91" type="bus_bus" depart="736.04" departLane="best" departSpeed="max" from="270392630" to="8094395"/>
    <trip id="bus94" type="bus_bus" depart="760.31" departLane="best" departSpeed="max" from="270392630" to="8094395"/>
    <trip id="bus97" type="bus_bus" depart="784.57" departLane="best" departSpeed="max" from="24959485" to="270367419"/>
    <trip id="bus99" type="bus_bus" depart="800.75" departLane="best" departSpeed="max" from="256507659" to="8094395"/>
    <trip id="bus107" type="bus_bus" depart="865.46" departLane="best" departSpeed="max" from="24960184" to="8094395"/>
    <trip id="bus112" type="bus_bus" depart="905.90" departLane="best" departSpeed="max" from="256507659" to="270367419"/>
    <trip id="bus115" type="bus_bus" depart="930.16" departLane="best" departSpeed="max" from="24960184" to="8094395"/>
    <trip id="bus117" type="bus_bus" depart="946.34" departLane="best" departSpeed="max" from="27853330" to="160247335"/>
    <trip id="bus125" type="bus_bus" depart="1011.05" departLane="best" departSpeed="max" from="5081498#0" to="23886552"/>
    <trip id="bus126" type="bus_bus" depart="1019.14" departLane="best" departSpeed="max" from="5081498#0" to="23886552"/>
    <trip id="bus128" type="bus_bus" depart="1035.31" departLane="best" departSpeed="max" from="135254875" to="24960346"/>
    <trip id="bus130" type="bus_bus" depart="1051.49" departLane="best" departSpeed="max" from="270392630" to="256507648"/>
    <trip id="bus131" type="bus_bus" depart="1059.58" departLane="best" departSpeed="max" from="24960184" to="270367419"/>
    <trip id="bus133" type="bus_bus" depart="1075.75" departLane="best" departSpeed="max" from="270367431" to="270376454"/>
    <trip id="bus134" type="bus_bus" depart="1083.84" departLane="best" departSpeed="max" from="27853330" to="270376454"/>
    <trip id="bus140" type="bus_bus" depart="1132.37" departLane="best" departSpeed="max" from="135254875" to="24960346"/>
    <trip id="bus142" type="bus_bus" depart="1148.55" departLane="best" departSpeed="max" from="5081498#0" to="270367419"/>
    <trip id="bus144" type="bus_bus" depart="1164.73" departLane="best" departSpeed="max" from="256507659" to="270367419"/>
    <trip id="bus145" type="bus_bus" depart="1172.81" departLane="best" departSpeed="max" from="270392630" to="256507648"/>
    <trip id="bus146" type="bus_bus" depart="1180.90" departLane="best" departSpeed="max" from="256507659" to="23886552"/>
    <trip id="bus147" type="bus_bus" depart="1188.99" departLane="best" departSpeed="max" from="256507659" to="8094395"/>
    <trip id="bus150" type="bus_bus" depart="1213.26" departLane="best" departSpeed="max" from="4366988" to="270376454"/>
    <trip id="bus152" type="bus_bus" depart="1229.43" departLane="best" departSpeed="max" from="135254875" to="160247335"/>
    <trip id="bus154" type="bus_bus" depart="1245.61" departLane="best" departSpeed="max" from="256507659" to="270367419"/>
    <trip id="bus155" type="bus_bus" depart="1253.70" departLane="best" departSpeed="max" from="135254875" to="270376454"/>
    <trip id="bus158" type="bus_bus" depart="1277.96" departLane="best" departSpeed="max" from="27853330" to="270376454"/>
    <trip id="bus159" type="bus_bus" depart="1286.05" departLane="best" departSpeed="max" from="135254875" to="24960346"/>
    <trip id="bus160" type="bus_bus" depart="1294.14" departLane="best" departSpeed="max" from="270367431" to="160247335"/>
    <trip id="bus162" type="bus_bus" depart="1310.32" departLane="best" departSpeed="max" from="270392630" to="8094395"/>
    <trip id="bus166" type="bus_bus" depart="1342.67" departLane="best" departSpeed="max" from="4366988" to="270376454"/>
    <trip id="bus168" type="bus_bus" depart="1358.85" departLane="best" departSpeed="max" from="24959485" to="270367419"/>
    <trip id="bus173" type="bus_bus" depart="1399.29" departLane="best" departSpeed="max" from="27853330" to="160247335"/>
    <trip id="bus174" type="bus_bus" depart="1407.38" departLane="best" departSpeed="max" from="256507659" to="23886552"/>
    <trip id="bus175" type="bus_bus" depart="1415.47" departLane="best" departSpeed="max" from="256507659" to="8094395"/>
    <trip id="bus176" type="bus_bus" depart="1423.55" departLane="best" departSpeed="max" from="270367431" to="270376454"/>
    <trip id="bus177" type="bus_bus" depart="1431.64" departLane="best" departSpeed="max" from="4366988" to="270376454"/>
    <trip id="bus184" type="bus_bus" depart="1488.26" departLane="best" departSpeed="max" from="256507659" to="23886552"/>
    <trip id="bus185" type="bus_bus" depart="1496.35" departLane="best" departSpeed="max" from="256507659" to="23886552"/>
    <trip id="bus187" type="bus_bus" depart="1512.53" departLane="best" departSpeed="max" from="24960184" to="270367419"/>
    <trip id="bus188" type="bus_bus" depart="1520.61" departLane="best" departSpeed="max" from="132846158" to="270367419"/>
    <trip id="bus195" type="bus_bus" depart="1577.23" departLane="best" departSpeed="max" from="270392630" to="383821432"/>
    <trip id="bus196" type="bus_bus" depart="1585.32" departLane="best" departSpeed="max" from="5081498#0" to="23886552"/>
    <trip id="bus198" type="bus_bus" depart="1601.50" departLane="best" departSpeed="max" from="135254875" to="270376454"/>
    <trip id="bus202" type="bus_bus" depart="1633.85" departLane="best" departSpeed="max" from="135254875" to="160247335"/>
    <trip id="bus205" type="bus_bus" depart="1658.12" departLane="best" departSpeed="max" from="27853330" to="160247335"/>
    <trip id="bus206" type="bus_bus" depart="1666.21" departLane="best" departSpeed="max" from="270392630" to="270367419"/>
    <trip id="bus207" type="bus_bus" depart="1674.29" departLane="best" departSpeed="max" from="135254875" to="270376454"/>
    <trip id="bus210" type="bus_bus" depart="1698.56" departLane="best" departSpeed="max" from="270367431" to="24960346"/>
    <trip id="bus211" type="bus_bus" depart="1706.65" departLane="best" departSpeed="max" from="270392630" to="383821432"/>
    <trip id="bus218" type="bus_bus" depart="1763.27" departLane="best" departSpeed="max" from="256507659" to="270367419"/>
    <trip id="bus226" type="bus_bus" depart="1827.97" departLane="best" departSpeed="max" from="270392630" to="270367419"/>
    <trip id="bus230" type="bus_bus" depart="1860.33" departLane="best" departSpeed="max" from="270367431" to="24960346"/>
    <trip id="bus235" type="bus_bus" depart="1900.77" departLane="best" departSpeed="max" from="270367431" to="270376454"/>
    <trip id="bus239" type="bus_bus" depart="1933.12" departLane="best" departSpeed="max" from="135254875" to="160247335"/>
    <trip id="bus240" type="bus_bus" depart="1941.21" departLane="best" departSpeed="max" from="270367431" to="24959390"/>
    <trip id="bus241" type="bus_bus" depart="1949.30" departLane="best" departSpeed="max" from="270392630" to="23886552"/>
    <trip id="bus244" type="bus_bus" depart="1973.56" departLane="best" departSpeed="max" from="135254875" to="160247335"/>
    <trip id="bus246" type="bus_bus" depart="1989.74" departLane="best" departSpeed="max" from="132846158" to="270367419"/>
    <trip id="bus248" type="bus_bus" depart="2005.92" departLane="best" departSpeed="max" from="270367431" to="24959390"/>
    <trip id="bus249" type="bus_bus" depart="2014.01" departLane="best" departSpeed="max" from="5081498#0" to="23886552"/>
    <trip id="bus254" type="bus_bus" depart="2054.45" departLane="best" departSpeed="max" from="270392630" to="270367419"/>
    <trip id="bus257" type="bus_bus" depart="2078.71" departLane="best" departSpeed="max" from="270392630" to="23886552"/>
    <trip id="bus258" type="bus_bus" depart="2086.80" departLane="best" departSpeed="max" from="135254875" to="160247335"/>
    <trip id="bus260" type="bus_bus" depart="2102.98" departLane="best" departSpeed="max" from="270367431" to="24959390"/>
    <trip id="bus263" type="bus_bus" depart="2127.24" departLane="best" departSpeed="max" from="270392630" to="8094395"/>
    <trip id="bus265" type="bus_bus" depart="2143.42" departLane="best" departSpeed="max" from="270392630" to="8094395"/>
    <trip id="bus266" type="bus_bus" depart="2151.51" departLane="best" departSpeed="max" from="270392630" to="8094395"/>
    <trip id="bus272" type="bus_bus" depart="2200.04" departLane="best" departSpeed="max" from="5081498#0" to="8094395"/>
    <trip id="bus275" type="bus_bus" depart="2224.30" departLane="best" departSpeed="max" from="256507659" to="270367419"/>
    <trip id="bus276" type="bus_bus" depart="2232.39" departLane="best" departSpeed="max" from="5081498#0" to="23886552"/>
    <trip id="bus278" type="bus_bus" depart="2248.57" departLane="best" departSpeed="max" from="270392630" to="383821432"/>
    <trip id="bus281" type="bus_bus" depart="2272.83" departLane="best" departSpeed="max" from="24960184" to="8094395"/>
    <trip id="bus282" type="bus_bus" depart="2280.92" departLane="best" departSpeed="max" from="5081498#0" to="270367419"/>
    <trip id="bus283" type="bus_bus" depart="2289.01" departLane="best" departSpeed="max" from="270367431" to="24960346"/>
    <trip id="bus284" type="bus_bus" depart="2297.10" departLane="best" departSpeed="max" from="135254875" to="24960346"/>
    <trip id="bus290" type="bus_bus" depart="2345.63" departLane="best" departSpeed="max" from="270367431" to="160247335"/>
    <trip id="bus291" type="bus_bus" depart="2353.72" departLane="best" departSpeed="max" from="5081498#0" to="8094395"/>
    <trip id="bus292" type="bus_bus" depart="2361.81" departLane="best" departSpeed="max" from="256507659" to="23886552"/>
    <trip id="bus296" type="bus_bus" depart="2394.16" departLane="best" departSpeed="max" from="270367431" to="24960346"/>
    <trip id="bus298" type="bus_bus" depart="2410.34" departLane="best" departSpeed="max" from="256507659" to="8094395"/>
    <trip id="bus301" type="bus_bus" depart="2434.60" departLane="best" departSpeed="max" from="256507659" to="23886552"/>
    <trip id="bus302" type="bus_bus" depart="2442.69" departLane="best" departSpeed="max" from="270367431" to="24960346"/>
    <trip id="bus305" type="bus_bus" depart="2466.95" departLane="best" departSpeed="max" from="135254875" to="270376454"/>
    <trip id="bus306" type="bus_bus" depart="2475.04" departLane="best" departSpeed="max" from="270367431" to="24959390"/>
    <trip id="bus307" type="bus_bus" depart="2483.13" departLane="best" departSpeed="max" from="27853330" to="160247335"/>
    <trip id="bus308" type="bus_bus" depart="2491.22" departLane="best" departSpeed="max" from="27853330" to="270376454"/>
    <trip id="bus310" type="bus_bus" depart="2507.40" departLane="best" departSpeed="max" from="270392630" to="383821432"/>
    <trip id="bus315" type="bus_bus" depart="2547.84" departLane="best" departSpeed="max" from="270392630" to="23886552"/>
    <trip id="bus316" type="bus_bus" depart="2555.93" departLane="best" departSpeed="max" from="256507659" to="8094395"/>
    <trip id="bus318" type="bus_bus" depart="2572.10" departLane="best" departSpeed="max" from="270392630" to="383821432"/>
    <trip id="bus320" type="bus_bus" depart="2588.28" departLane="best" departSpeed="max" from="27853330" to="270376454"/>
    <trip id="bus321" type="bus_bus" depart="2596.37" departLane="best" departSpeed="max" from="132846158" to="270367419"/>
    <trip id="bus322" type="bus_bus" depart="2604.46" departLane="best" departSpeed="max" from="5081498#0" to="8094395"/>
    <trip id="bus323" type="bus_bus" depart="2612.54" departLane="best" departSpeed="max" from="132846158" to="270367419"/>
    <trip id="bus325" type="bus_bus" depart="2628.72" departLane="best" departSpeed="max" from="270392630" to="8094395"/>
    <trip id="bus330" type="bus_bus" depart="2669.16" departLane="best" departSpeed="max" from="135254875" to="160247335"/>
    <trip id="bus335" type="bus_bus" depart="2709.61" departLane="best" departSpeed="max" from="135254875" to="24960346"/>
    <trip id="bus336" type="bus_bus" depart="2717.69" departLane="best" departSpeed="max" from="24960184" to="270367419"/>
    <trip id="bus339" type="bus_bus" depart="2741.96" departLane="best" departSpeed="max" from="135254875" to="24960346"/>
    <trip id="bus342" type="bus_bus" depart="2766.22" departLane="best" departSpeed="max" from="5081498#0" to="270367419"/>
    <trip id="bus343" type="bus_bus" depart="2774.31" departLane="best" departSpeed="max" from="24959485" to="270367419"/>
    <trip id="bus344" type="bus_bus" depart="2782.40" departLane="best" departSpeed="max" from="132846158" to="270367419"/>
    <trip id="bus345" type="bus_bus" depart="2790.49" departLane="best" departSpeed="max" from="256507659" to="8094395"/>
    <trip id="bus348" type="bus_bus" depart="2814.75" departLane="best" departSpeed="max" from="270392630" to="270367419"/>
    <trip id="bus349" type="bus_bus" depart="2822.84" departLane="best" departSpeed="max" from="270392630" to="383821432"/>
    <trip id="bus350" type="bus_bus" depart="2830.93" departLane="best" departSpeed="max" from="270392630" to="8094395"/>
    <trip id="bus352" type="bus_bus" depart="2847.11" departLane="best" departSpeed="max" from="256507659" to="270367419"/>
    <trip id="bus353" type="bus_bus" depart="2855.20" departLane="best" departSpeed="max" from="27853330" to="160247335"/>
    <trip id="bus359" type="bus_bus" depart="2903.73" departLane="best" departSpeed="max" from="4366988" to="270376454"/>
    <trip id="bus360" type="bus_bus" depart="2911.81" departLane="best" departSpeed="max" from="5081498#0" to="23886552"/>
    <trip id="bus365" type="bus_bus" depart="2952.26" departLane="best" departSpeed="max" from="270392630" to="270367419"/>
    <trip id="bus379" type="bus_bus" depart="3065.49" departLane="best" departSpeed="max" from="270392630" to="270367419"/>
    <trip id="bus380" type="bus_bus" depart="3073.58" departLane="best" departSpeed="max" from="270367431" to="160247335"/>
    <trip id="bus391" type="bus_bus" depart="3162.55" departLane="best" departSpeed="max" from="135254875" to="160247335"/>
    <trip id="bus399" type="bus_bus" depart="3227.26" departLane="best" departSpeed="max" from="270392630" to="256507648"/>
    <trip id="bus400" type="bus_bus" depart="3235.35" departLane="best" departSpeed="max" from="132846158" to="270367419"/>
    <trip id="bus401" type="bus_bus" depart="3243.44" departLane="best" departSpeed="max" from="270392630" to="256507648"/>
    <trip id="bus402" type="bus_bus" depart="3251.53" departLane="best" departSpeed="max" from="24960184" to="8094395"/>
    <trip id="bus408" type="bus_bus" depart="3300.06" departLane="best" departSpeed="max" from="256507659" to="270367419"/>
    <trip id="bus411" type="bus_bus" depart="3324.32" departLane="best" departSpeed="max" from="24960184" to="270367419"/>
    <trip id="bus427" type="bus_bus" depart="3453.74" departLane="best" departSpeed="max" from="256507659" to="23886552"/>
    <trip id="bus435" type="bus_bus" depart="3518.44" departLane="best" departSpeed="max" from="270392630" to="256507648"/>
    <trip id="bus438" type="bus_bus" depart="3542.71" departLane="best" departSpeed="max" from="270392630" to="256507648"/>
    <trip id="bus440" type="bus_bus" depart="3558.88" departLane="best" departSpeed="max" from="24960184" to="270367419"/>
    <trip id="bus443" type="bus_bus" depart="3583.15" departLane="best" departSpeed="max" from="135254875" to="24960346"/>
    <trip id="bus447" type="bus_bus" depart="3615.50" departLane="best" departSpeed="max" from="135254875" to="160247335"/>
    <trip id="bus449" type="bus_bus" depart="3631.68" departLane="best" departSpeed="max" from="270392630" to="383821432"/>
    <trip id="bus460" type="bus_bus" depart="3720.65" departLane="best" departSpeed="max" from="270392630" to="23886552"/>
    <trip id="bus462" type="bus_bus" depart="3736.83" departLane="best" departSpeed="max" from="27853330" to="270376454"/>
    <trip id="bus463" type="bus_bus" depart="3744.92" departLane="best" departSpeed="max" from="256507659" to="8094395"/>
    <trip id="bus464" type="bus_bus" depart="3753.01" departLane="best" departSpeed="max" from="270392630" to="383821432"/>
    <trip id="bus465" type="bus_bus" depart="3761.09" departLane="best" departSpeed="max" from="270392630" to="23886552"/>
    <trip id="bus477" type="bus_bus" depart="3858.15" departLane="best" departSpeed="max" from="135254875" to="160247335"/>
    <trip id="bus481" type="bus_bus" depart="3890.51" departLane="best" departSpeed="max" from="135254875" to="24960346"/>
    <trip id="bus483" type="bus_bus" depart="3906.68" departLane="best" departSpeed="max" from="24960184" to="270367419"/>
    <trip id="bus488" type="bus_bus" depart="3947.13" departLane="best" departSpeed="max" from="24960184" to="270367419"/>
    <trip id="bus489" type="bus_bus" depart="3955.21" departLane="best" departSpeed="max" from="135254875" to="24960346"/>
    <trip id="bus491" type="bus_bus" depart="3971.39" departLane="best" departSpeed="max" from="24960184" to="270367419"/>
    <trip id="bus494" type="bus_bus" depart="3995.66" departLane="best" departSpeed="max" from="4366988" to="270376454"/>
    <trip id="bus495" type="bus_bus" depart="4003.75" departLane="best" departSpeed="max" from="4366988" to="270376454"/>
    <trip id="bus496" type="bus_bus" depart="4011.83" departLane="best" departSpeed="max" from="270392630" to="256507648"/>
    <trip id="bus501" type="bus_bus" depart="4052.28" departLane="best" departSpeed="max" from="135254875" to="270376454"/>
    <trip id="bus503" type="bus_bus" depart="4068.45" departLane="best" departSpeed="max" from="4366988" to="270376454"/>
    <trip id="bus509" type="bus_bus" depart="4116.98" departLane="best" departSpeed="max" from="270367431" to="24959390"/>
    <trip id="bus511" type="bus_bus" depart="4133.16" departLane="best" departSpeed="max" from="5081498#0" to="8094395"/>
    <trip id="bus515" type="bus_bus" depart="4165.51" departLane="best" departSpeed="max" from="24959485" to="270367419"/>
    <trip id="bus519" type="bus_bus" depart="4197.87" departLane="best" departSpeed="max" from="5081498#0" to="23886552"/>
    <trip id="bus520" type="bus_bus" depart="4205.95" departLane="best" departSpeed="max" from="256507659" to="8094395"/>
    <trip id="bus525" type="bus_bus" depart="4246.40" departLane="best" departSpeed="max" from="270392630" to="383821432"/>
    <trip id="bus526" type="bus_bus" depart="4254.48" departLane="best" departSpeed="max" from="4366988" to="270376454"/>
    <trip id="bus527" type="bus_bus" depart="4262.57" departLane="best" departSpeed="max" from="135254875" to="270376454"/>
    <trip id="bus530" type="bus_bus" depart="4286.84" departLane="best" departSpeed="max" from="5081498#0" to="270367419"/>
    <trip id="bus533" type="bus_bus" depart="4311.10" departLane="best" departSpeed="max" from="256507659" to="270367419"/>
    <trip id="bus538" type="bus_bus" depart="4351.55" departLane="best" departSpeed="max" from="270392630" to="8094395"/>
    <trip id="bus541" type="bus_bus" depart="4375.81" departLane="best" departSpeed="max" from="27853330" to="270376454"/>
    <trip id="bus546" type="bus_bus" depart="4416.25" departLane="best" departSpeed="max" from="270392630" to="383821432"/>
    <trip id="bus551" type="bus_bus" depart="4456.69" departLane="best" departSpeed="max" from="270367431" to="24959390"/>
    <trip id="bus554" type="bus_bus" depart="4480.96" departLane="best" departSpeed="max" from="135254875" to="24960346"/>
    <trip id="bus555" type="bus_bus" depart="4489.05" departLane="best" departSpeed="max" from="4366988" to="270376454"/>
    <trip id="bus557" type="bus_bus" depart="4505.22" departLane="best" departSpeed="max" from="256507659" to="8094395"/>
    <trip id="bus559" type="bus_bus" depart="4521.40" departLane="best" departSpeed="max" from="27853330" to="160247335"/>
    <trip id="bus560" type="bus_bus" depart="4529.49" departLane="best" departSpeed="max" from="270392630" to="383821432"/>
    <trip id="bus561" type="bus_bus" depart="4537.58" departLane="best" departSpeed="max" from="270367431" to="24959390"/>
    <trip id="bus562" type="bus_bus" depart="4545.67" departLane="best" departSpeed="max" from="132846158" to="270367419"/>
    <trip id="bus563" type="bus_bus" depart="4553.75" departLane="best" departSpeed="max" from="24960184" to="270367419"/>
    <trip id="bus568" type="bus_bus" depart="4594.20" departLane="best" departSpeed="max" from="5081498#0" to="8094395"/>
    <trip id="bus569" type="bus_bus" depart="4602.28" departLane="best" departSpeed="max" from="132846158" to="270367419"/>
    <trip id="bus571" type="bus_bus" depart="4618.46" departLane="best" departSpeed="max" from="270392630" to="8094395"/>
    <trip id="bus573" type="bus_bus" depart="4634.64" departLane="best" departSpeed="max" from="27853330" to="160247335"/>
    <trip id="bus575" type="bus_bus" depart="4650.82" departLane="best" departSpeed="max" from="270392630" to="8094395"/>
    <trip id="bus578" type="bus_bus" depart="4675.08" departLane="best" departSpeed="max" from="24960184" to="270367419"/>
    <trip id="bus581" type="bus_bus" depart="4699.35" departLane="best" departSpeed="max" from="24960184" to="270367419"/>
    <trip id="bus582" type="bus_bus" depart="4707.43" departLane="best" departSpeed="max" from="256507659" to="8094395"/>
    <trip id="bus583" type="bus_bus" depart="4715.52" departLane="best" departSpeed="max" from="256507659" to="23886552"/>
    <trip id="bus588" type="bus_bus" depart="4755.96" departLane="best" departSpeed="max" from="4366988" to="270376454"/>
    <trip id="bus589" type="bus_bus" depart="4764.05" departLane="best" departSpeed="max" from="5081498#0" to="270367419"/>
    <trip id="bus596" type="bus_bus" depart="4820.67" departLane="best" departSpeed="max" from="270367431" to="270376454"/>
    <trip id="bus597" type="bus_bus" depart="4828.76" departLane="best" departSpeed="max" from="5081498#0" to="270367419"/>
    <trip id="bus601" type="bus_bus" depart="4861.11" departLane="best" departSpeed="max" from="256507659" to="8094395"/>
    <trip id="bus605" type="bus_bus" depart="4893.47" departLane="best" departSpeed="max" from="24960184" to="8094395"/>
    <trip id="bus606" type="bus_bus" depart="4901.55" departLane="best" departSpeed="max" from="24959485" to="270367419"/>
    <trip id="bus610" type="bus_bus" depart="4933.91" departLane="best" departSpeed="max" from="5081498#0" to="23886552"/>
    <trip id="bus611" type="bus_bus" depart="4942.00" departLane="best" departSpeed="max" from="270392630" to="383821432"/>
    <trip id="bus614" type="bus_bus" depart="4966.26" departLane="best" departSpeed="max" from="270392630" to="270367419"/>
    <trip id="bus615" type="bus_bus" depart="4974.35" departLane="best" departSpeed="max" from="256507659" to="270367419"/>
    <trip id="bus616" type="bus_bus" depart="4982.44" departLane="best" departSpeed="max" from="256507659" to="270367419"/>