<?xml version="1.0" encoding="UTF-8"?>

<!-- generated on 2024-04-25 12:20:40.339088 by osmWebWizard.py v1_19_0+0000-baa66a0f364
<configuration>
    <net-file value="F:\SUMO\OptimalEmission-SUMO-ReinforcementLearning\2024-04-25-12-20-28\osm.net.xml.gz"/>
    <output-trip-file value="F:\SUMO\OptimalEmission-SUMO-ReinforcementLearning\2024-04-25-12-20-28\osm.passenger.trips.xml"/>
    <route-file value="F:\SUMO\OptimalEmission-SUMO-ReinforcementLearning\2024-04-25-12-20-28\osm.passenger.rou.xml"/>
    <prefix value="veh"/>
    <trip-attributes value="departLane=&quot;best&quot;"/>
    <fringe-start-attributes value="departSpeed=&quot;max&quot;"/>
    <vehicle-class value="passenger"/>
    <lanes value="True"/>
    <fringe-factor value="5"/>
    <allow-fringe.min-length value="1000.0"/>
    <via-edge-types value="highway.motorway,highway.motorway_link,highway.trunk_link,highway.primary_link,highway.secondary_link,highway.tertiary_link"/>
    <min-distance value="300.0"/>
    <min-distance.fringe value="10.0"/>
    <remove-loops value="True"/>
    <validate value="True"/>
    <end value="60000.0"/>
    <insertion-density value="12.0"/>
</configuration>
-->

<!-- generated on 2024-04-25 12:20:39 by Eclipse SUMO duarouter Version 1.19.0
<configuration xmlns:xsi="http://www.w3.org/2001/XMLSchema-instance" xsi:noNamespaceSchemaLocation="http://sumo.dlr.de/xsd/duarouterConfiguration.xsd">

    <input>
        <net-file value="F:\SUMO\OptimalEmission-SUMO-ReinforcementLearning\2024-04-25-12-20-28\osm.net.xml.gz"/>
        <route-files value="F:\SUMO\OptimalEmission-SUMO-ReinforcementLearning\2024-04-25-12-20-28\osm.passenger.trips.xml"/>
    </input>

    <output>
        <output-file value="F:\SUMO\OptimalEmission-SUMO-ReinforcementLearning\2024-04-25-12-20-28\osm.passenger.trips.xml.tmp"/>
        <alternatives-output value="NUL"/>
        <write-trips value="true"/>
    </output>

    <processing>
        <remove-loops value="true"/>
    </processing>

    <time>
        <begin value="0.0"/>
        <end value="60000.0"/>
    </time>

    <report>
        <no-warnings value="true"/>
        <ignore-errors value="true"/>
        <no-step-log value="true"/>
    </report>

</configuration>
-->

<routes xmlns:xsi="http://www.w3.org/2001/XMLSchema-instance" xsi:noNamespaceSchemaLocation="http://sumo.dlr.de/xsd/routes_file.xsd">
    <vType id="veh_passenger" vClass="passenger"/>
    <trip id="veh3" type="veh_passenger" depart="8.09" departLane="best" departSpeed="max" from="270367431" to="160247335"/>
    <trip id="veh4" type="veh_passenger" depart="10.78" departLane="best" departSpeed="max" from="24960184" to="270367419"/>
    <trip id="veh6" type="veh_passenger" depart="16.18" departLane="best" departSpeed="max" from="270392630" to="270367419"/>
    <trip id="veh7" type="veh_passenger" depart="18.87" departLane="best" departSpeed="max" from="24960184" to="270367419"/>
    <trip id="veh8" type="veh_passenger" depart="21.57" departLane="best" departSpeed="max" from="27853330" to="160247335"/>
    <trip id="veh9" type="veh_passenger" depart="24.27" departLane="best" departSpeed="max" from="27853330" to="270376454"/>
    <trip id="veh10" type="veh_passenger" depart="26.96" departLane="best" departSpeed="max" from="270367431" to="24959390"/>
    <trip id="veh13" type="veh_passenger" depart="35.05" departLane="best" departSpeed="max" from="27853330" to="270376454"/>
    <trip id="veh14" type="veh_passenger" depart="37.75" departLane="best" departSpeed="max" from="270392630" to="8094395"/>
    <trip id="veh15" type="veh_passenger" depart="40.44" departLane="best" departSpeed="max" from="27853330" to="270376454"/>
    <trip id="veh18" type="veh_passenger" depart="48.53" departLane="best" departSpeed="max" from="135254875" to="24960346"/>
    <trip id="veh19" type="veh_passenger" depart="51.23" departLane="best" departSpeed="max" from="135254875" to="24960346"/>
    <trip id="veh20" type="veh_passenger" depart="53.92" departLane="best" departSpeed="max" from="270392630" to="256507648"/>
    <trip id="veh21" type="veh_passenger" depart="56.62" departLane="best" departSpeed="max" from="270367431" to="24959390"/>
    <trip id="veh22" type="veh_passenger" depart="59.31" departLane="best" departSpeed="max" from="256507659" to="8094395"/>
    <trip id="veh23" type="veh_passenger" depart="62.01" departLane="best" departSpeed="max" from="270392630" to="270367419"/>
    <trip id="veh27" type="veh_passenger" depart="72.80" departLane="best" departSpeed="max" from="27853330" to="270376454"/>
    <trip id="veh30" type="veh_passenger" depart="80.88" departLane="best" departSpeed="max" from="24960184" to="8094395"/>
    <trip id="veh31" type="veh_passenger" depart="83.58" departLane="best" departSpeed="max" from="270392630" to="270367419"/>
    <trip id="veh34" type="veh_passenger" depart="91.67" departLane="best" departSpeed="max" from="270392630" to="383821432"/>
    <trip id="veh35" type="veh_passenger" depart="94.36" departLane="best" departSpeed="max" from="270367431" to="24959390"/>
    <trip id="veh36" type="veh_passenger" depart="97.06" departLane="best" departSpeed="max" from="5081498#0" to="270367419"/>
    <trip id="veh37" type="veh_passenger" depart="99.76" departLane="best" departSpeed="max" from="135254875" to="160247335"/>
    <trip id="veh38" type="veh_passenger" depart="102.45" departLane="best" departSpeed="max" from="135254875" to="270376454"/>
    <trip id="veh39" type="veh_passenger" depart="105.15" departLane="best" departSpeed="max" from="270392630" to="270367419"/>
    <trip id="veh41" type="veh_passenger" depart="110.54" departLane="best" departSpeed="max" from="5081498#0" to="270367419"/>
    <trip id="veh43" type="veh_passenger" depart="115.93" departLane="best" departSpeed="max" from="270392630" to="270367419"/>
    <trip id="veh48" type="veh_passenger" depart="129.41" departLane="best" departSpeed="max" from="270367431" to="24959390"/>
    <trip id="veh50" type="veh_passenger" depart="134.81" departLane="best" departSpeed="max" from="270392630" to="23886552"/>
    <trip id="veh51" type="veh_passenger" depart="137.50" departLane="best" departSpeed="max" from="270392630" to="270367419"/>
    <trip id="veh52" type="veh_passenger" depart="140.20" departLane="best" departSpeed="max" from="270392630" to="270367419"/>
    <trip id="veh54" type="veh_passenger" depart="145.59" departLane="best" departSpeed="max" from="4366988" to="270376454"/>
    <trip id="veh57" type="veh_passenger" depart="153.68" departLane="best" departSpeed="max" from="135254875" to="270376454"/>
    <trip id="veh58" type="veh_passenger" depart="156.38" departLane="best" departSpeed="max" from="270392630" to="23886552"/>
    <trip id="veh60" type="veh_passenger" depart="161.77" departLane="best" departSpeed="max" from="270367431" to="24959390"/>
    <trip id="veh64" type="veh_passenger" depart="172.55" departLane="best" departSpeed="max" from="135254875" to="270376454"/>
    <trip id="veh66" type="veh_passenger" depart="177.94" departLane="best" departSpeed="max" from="27853330" to="160247335"/>
    <trip id="veh68" type="veh_passenger" depart="183.34" departLane="best" departSpeed="max" from="5081498#0" to="270367419"/>
    <trip id="veh69" type="veh_passenger" depart="186.03" departLane="best" departSpeed="max" from="270367431" to="270376454"/>
    <trip id="veh72" type="veh_passenger" depart="194.12" departLane="best" departSpeed="max" from="5081498#0" to="23886552"/>
    <trip id="veh74" type="veh_passenger" depart="199.51" departLane="best" departSpeed="max" from="24959485" to="270367419"/>
    <trip id="veh75" type="veh_passenger" depart="202.21" departLane="best" departSpeed="max" from="270367431" to="24960346"/>
    <trip id="veh76" type="veh_passenger" depart="204.91" departLane="best" departSpeed="max" from="24960184" to="8094395"/>
    <trip id="veh80" type="veh_passenger" depart="215.69" departLane="best" departSpeed="max" from="5081498#0" to="8094395"/>
    <trip id="veh82" type="veh_passenger" depart="221.08" departLane="best" departSpeed="max" from="270367431" to="24959390"/>
    <trip id="veh83" type="veh_passenger" depart="223.78" departLane="best" departSpeed="max" from="270367431" to="160247335"/>
    <trip id="veh86" type="veh_passenger" depart="231.87" departLane="best" departSpeed="max" from="5081498#0" to="8094395"/>
    <trip id="veh88" type="veh_passenger" depart="237.26" departLane="best" departSpeed="max" from="5081498#0" to="270367419"/>
    <trip id="veh89" type="veh_passenger" depart="239.96" departLane="best" departSpeed="max" from="132846158" to="270367419"/>
    <trip id="veh94" type="veh_passenger" depart="253.44" departLane="best" departSpeed="max" from="24960184" to="270367419"/>
    <trip id="veh98" type="veh_passenger" depart="264.22" departLane="best" departSpeed="max" from="5081498#0" to="8094395"/>
    <trip id="veh99" type="veh_passenger" depart="266.92" departLane="best" departSpeed="max" from="24960184" to="8094395"/>
    <trip id="veh100" type="veh_passenger" depart="269.61" departLane="best" departSpeed="max" from="270367431" to="24959390"/>
    <trip id="veh101" type="veh_passenger" depart="272.31" departLane="best" departSpeed="max" from="27853330" to="270376454"/>
    <trip id="veh102" type="veh_passenger" depart="275.00" departLane="best" departSpeed="max" from="270392630" to="8094395"/>
    <trip id="veh104" type="veh_passenger" depart="280.40" departLane="best" departSpeed="max" from="270392630" to="8094395"/>
    <trip id="veh107" type="veh_passenger" depart="288.49" departLane="best" departSpeed="max" from="256507659" to="270367419"/>
    <trip id="veh111" type="veh_passenger" depart="299.27" departLane="best" departSpeed="max" from="270367431" to="24960346"/>
    <trip id="veh114" type="veh_passenger" depart="307.36" departLane="best" departSpeed="max" from="270392630" to="270367419"/>
    <trip id="veh115" type="veh_passenger" depart="310.05" departLane="best" departSpeed="max" from="270367431" to="160247335"/>
    <trip id="veh120" type="veh_passenger" depart="323.53" departLane="best" departSpeed="max" from="270392630" to="383821432"/>
    <trip id="veh122" type="veh_passenger" depart="328.93" departLane="best" departSpeed="max" from="270392630" to="383821432"/>
    <trip id="veh123" type="veh_passenger" depart="331.62" departLane="best" departSpeed="max" from="270367431" to="270376454"/>
    <trip id="veh127" type="veh_passenger" depart="342.41" departLane="best" departSpeed="max" from="256507659" to="8094395"/>
    <trip id="veh129" type="veh_passenger" depart="347.80" departLane="best" departSpeed="max" from="270392630" to="23886552"/>
    <trip id="veh131" type="veh_passenger" depart="353.19" departLane="best" departSpeed="max" from="270367431" to="24960346"/>
    <trip id="veh135" type="veh_passenger" depart="363.98" departLane="best" departSpeed="max" from="270392630" to="270367419"/>
    <trip id="veh136" type="veh_passenger" depart="366.67" departLane="best" departSpeed="max" from="5081498#0" to="270367419"/>
    <trip id="veh137" type="veh_passenger" depart="369.37" departLane="best" departSpeed="max" from="5081498#0" to="23886552"/>
    <trip id="veh141" type="veh_passenger" depart="380.15" departLane="best" departSpeed="max" from="270392630" to="256507648"/>
    <trip id="veh142" type="veh_passenger" depart="382.85" departLane="best" departSpeed="max" from="270392630" to="270367419"/>
    <trip id="veh144" type="veh_passenger" depart="388.24" departLane="best" departSpeed="max" from="270367431" to="160247335"/>
    <trip id="veh145" type="veh_passenger" depart="390.94" departLane="best" departSpeed="max" from="270392630" to="256507648"/>
    <trip id="veh147" type="veh_passenger" depart="396.33" departLane="best" departSpeed="max" from="256507659" to="270367419"/>
    <trip id="veh148" type="veh_passenger" depart="399.03" departLane="best" departSpeed="max" from="270367431" to="24960346"/>
    <trip id="veh151" type="veh_passenger" depart="407.11" departLane="best" departSpeed="max" from="4366988" to="270376454"/>
    <trip id="veh152" type="veh_passenger" depart="409.81" departLane="best" departSpeed="max" from="256507659" to="270367419"/>
    <trip id="veh154" type="veh_passenger" depart="415.20" departLane="best" departSpeed="max" from="270392630" to="270367419"/>
    <trip id="veh155" type="veh_passenger" depart="417.90" departLane="best" departSpeed="max" from="270367431" to="24959390"/>
    <trip id="veh159" type="veh_passenger" depart="428.68" departLane="best" departSpeed="max" from="270392630" to="256507648"/>
    <trip id="veh160" type="veh_passenger" depart="431.38" departLane="best" departSpeed="max" from="27853330" to="270376454"/>
    <trip id="veh163" type="veh_passenger" depart="439.47" departLane="best" departSpeed="max" from="24960184" to="270367419"/>
    <trip id="veh164" type="veh_passenger" depart="442.16" departLane="best" departSpeed="max" from="27853330" to="160247335"/>
    <trip id="veh165" type="veh_passenger" depart="444.86" departLane="best" departSpeed="max" from="270367431" to="270376454"/>
    <trip id="veh167" type="veh_passenger" depart="450.25" departLane="best" departSpeed="max" from="270367431" to="24960346"/>
    <trip id="veh170" type="veh_passenger" depart="458.34" departLane="best" departSpeed="max" from="270367431" to="160247335"/>
    <trip id="veh172" type="veh_passenger" depart="463.73" departLane="best" departSpeed="max" from="270367431" to="270376454"/>
    <trip id="veh173" type="veh_passenger" depart="466.43" departLane="best" departSpeed="max" from="270392630" to="8094395"/>
    <trip id="veh174" type="veh_passenger" depart="469.13" departLane="best" departSpeed="max" from="270392630" to="8094395"/>
    <trip id="veh176" type="veh_passenger" depart="474.52" departLane="best" departSpeed="max" from="270392630" to="270367419"/>
    <trip id="veh178" type="veh_passenger" depart="479.91" departLane="best" departSpeed="max" from="4366988" to="270376454"/>
    <trip id="veh179" type="veh_passenger" depart="482.61" departLane="best" departSpeed="max" from="270367431" to="24960346"/>
    <trip id="veh181" type="veh_passenger" depart="488.00" departLane="best" departSpeed="max" from="270392630" to="270367419"/>
    <trip id="veh183" type="veh_passenger" depart="493.39" departLane="best" departSpeed="max" from="135254875" to="24960346"/>
    <trip id="veh184" type="veh_passenger" depart="496.09" departLane="best" departSpeed="max" from="270392630" to="23886552"/>
    <trip id="veh187" type="veh_passenger" depart="504.18" departLane="best" departSpeed="max" from="270367431" to="24959390"/>
    <trip id="veh189" type="veh_passenger" depart="509.57" departLane="best" departSpeed="max" from="27853330" to="270376454"/>
    <trip id="veh190" type="veh_passenger" depart="512.26" departLane="best" departSpeed="max" from="270367431" to="160247335"/>
    <trip id="veh191" type="veh_passenger" depart="514.96" departLane="best" departSpeed="max" from="270367431" to="270376454"/>
    <trip id="veh193" type="veh_passenger" depart="520.35" departLane="best" departSpeed="max" from="270367431" to="270376454"/>
    <trip id="veh194" type="veh_passenger" depart="523.05" departLane="best" departSpeed="max" from="270392630" to="270367419"/>
    <trip id="veh196" type="veh_passenger" depart="528.44" departLane="best" departSpeed="max" from="270367431" to="160247335"/>
    <trip id="veh197" type="veh_passenger" depart="531.14" departLane="best" departSpeed="max" from="270367431" to="270376454"/>
    <trip id="veh198" type="veh_passenger" depart="533.83" departLane="best" departSpeed="max" from="270367431" to="24959390"/>
    <trip id="veh202" type="veh_passenger" depart="544.62" departLane="best" departSpeed="max" from="24959485" to="270367419"/>
    <trip id="veh205" type="veh_passenger" depart="552.71" departLane="best" departSpeed="max" from="270392630" to="256507648"/>
    <trip id="veh206" type="veh_passenger" depart="555.40" departLane="best" departSpeed="max" from="132846158" to="270367419"/>
    <trip id="veh209" type="veh_passenger" depart="563.49" departLane="best" departSpeed="max" from="135254875" to="270376454"/>
    <trip id="veh211" type="veh_passenger" depart="568.88" departLane="best" departSpeed="max" from="24959485" to="270367419"/>
    <trip id="veh212" type="veh_passenger" depart="571.58" departLane="best" departSpeed="max" from="270392630" to="23886552"/>
    <trip id="veh214" type="veh_passenger" depart="576.97" departLane="best" departSpeed="max" from="135254875" to="160247335"/>
    <trip id="veh216" type="veh_passenger" depart="582.36" departLane="best" departSpeed="max" from="5081498#0" to="270367419"/>
    <trip id="veh218" type="veh_passenger" depart="587.76" departLane="best" departSpeed="max" from="135254875" to="270376454"/>
    <trip id="veh221" type="veh_passenger" depart="595.84" departLane="best" departSpeed="max" from="270392630" to="256507648"/>
    <trip id="veh224" type="veh_passenger" depart="603.93" departLane="best" departSpeed="max" from="27853330" to="270376454"/>
    <trip id="veh226" type="veh_passenger" depart="609.32" departLane="best" departSpeed="max" from="270392630" to="270367419"/>
    <trip id="veh227" type="veh_passenger" depart="612.02" departLane="best" departSpeed="max" from="270392630" to="8094395"/>
    <trip id="veh229" type="veh_passenger" depart="617.41" departLane="best" departSpeed="max" from="270392630" to="270367419"/>
    <trip id="veh230" type="veh_passenger" depart="620.11" departLane="best" departSpeed="max" from="270367431" to="270376454"/>
    <trip id="veh232" type="veh_passenger" depart="625.50" departLane="best" departSpeed="max" from="270367431" to="160247335"/>
    <trip id="veh237" type="veh_passenger" depart="638.98" departLane="best" departSpeed="max" from="135254875" to="270376454"/>
    <trip id="veh238" type="veh_passenger" depart="641.68" departLane="best" departSpeed="max" from="270367431" to="270376454"/>
    <trip id="veh239" type="veh_passenger" depart="644.37" departLane="best" departSpeed="max" from="270367431" to="270376454"/>
    <trip id="veh241" type="veh_passenger" depart="649.77" departLane="best" departSpeed="max" from="270392630" to="270367419"/>
    <trip id="veh242" type="veh_passenger" depart="652.46" departLane="best" departSpeed="max" from="270392630" to="256507648"/>
    <trip id="veh246" type="veh_passenger" depart="663.25" departLane="best" departSpeed="max" from="270367431" to="270376454"/>
    <trip id="veh247" type="veh_passenger" depart="665.94" departLane="best" departSpeed="max" from="5081498#0" to="270367419"/>
    <trip id="veh248" type="veh_passenger" depart="668.64" departLane="best" departSpeed="max" from="256507659" to="23886552"/>
    <trip id="veh252" type="veh_passenger" depart="679.42" departLane="best" departSpeed="max" from="5081498#0" to="270367419"/>
    <trip id="veh253" type="veh_passenger" depart="682.12" departLane="best" departSpeed="max" from="270392630" to="23886552"/>
    <trip id="veh257" type="veh_passenger" depart="692.90" departLane="best" departSpeed="max" from="5081498#0" to="270367419"/>
    <trip id="veh259" type="veh_passenger" depart="698.30" departLane="best" departSpeed="max" from="135254875" to="270376454"/>
    <trip id="veh262" type="veh_passenger" depart="706.38" departLane="best" departSpeed="max" from="5081498#0" to="23886552"/>
    <trip id="veh263" type="veh_passenger" depart="709.08" departLane="best" departSpeed="max" from="270392630" to="270367419"/>
    <trip id="veh267" type="veh_passenger" depart="719.87" departLane="best" departSpeed="max" from="270392630" to="270367419"/>
    <trip id="veh268" type="veh_passenger" depart="722.56" departLane="best" departSpeed="max" from="270392630" to="8094395"/>
    <trip id="veh272" type="veh_passenger" depart="733.35" departLane="best" departSpeed="max" from="132846158" to="270367419"/>
    <trip id="veh275" type="veh_passenger" depart="741.43" departLane="best" departSpeed="max" from="270392630" to="270367419"/>
    <trip id="veh276" type="veh_passenger" depart="744.13" departLane="best" departSpeed="max" from="270392630" to="8094395"/>
    <trip id="veh277" type="veh_passenger" depart="746.83" departLane="best" departSpeed="max" from="270392630" to="8094395"/>
    <trip id="veh278" type="veh_passenger" depart="749.52" departLane="best" departSpeed="max" from="270392630" to="383821432"/>
    <trip id="veh279" type="veh_passenger" depart="752.22" departLane="best" departSpeed="max" from="27853330" to="160247335"/>
    <trip id="veh281" type="veh_passenger" depart="757.61" departLane="best" departSpeed="max" from="270392630" to="270367419"/>
    <trip id="veh282" type="veh_passenger" depart="760.31" departLane="best" departSpeed="max" from="256507659" to="23886552"/>
    <trip id="veh283" type="veh_passenger" depart="763.00" departLane="best" departSpeed="max" from="5081498#0" to="270367419"/>
    <trip id="veh285" type="veh_passenger" depart="768.40" departLane="best" departSpeed="max" from="132846158" to="270367419"/>
    <trip id="veh289" type="veh_passenger" depart="779.18" departLane="best" departSpeed="max" from="5081498#0" to="8094395"/>
    <trip id="veh292" type="veh_passenger" depart="787.27" departLane="best" departSpeed="max" from="270367431" to="270376454"/>
    <trip id="veh296" type="veh_passenger" depart="798.05" departLane="best" departSpeed="max" from="270392630" to="383821432"/>
    <trip id="veh298" type="veh_passenger" depart="803.45" departLane="best" departSpeed="max" from="256507659" to="8094395"/>
    <trip id="veh301" type="veh_passenger" depart="811.53" departLane="best" departSpeed="max" from="256507659" to="8094395"/>
    <trip id="veh303" type="veh_passenger" depart="816.93" departLane="best" departSpeed="max" from="270392630" to="270367419"/>
    <trip id="veh306" type="veh_passenger" depart="825.01" departLane="best" departSpeed="max" from="270392630" to="8094395"/>
    <trip id="veh307" type="veh_passenger" depart="827.71" departLane="best" departSpeed="max" from="270367431" to="270376454"/>
    <trip id="veh310" type="veh_passenger" depart="835.80" departLane="best" departSpeed="max" from="24959485" to="270367419"/>
    <trip id="veh311" type="veh_passenger" depart="838.49" departLane="best" departSpeed="max" from="270392630" to="23886552"/>
    <trip id="veh314" type="veh_passenger" depart="846.58" departLane="best" departSpeed="max" from="270392630" to="270367419"/>
    <trip id="veh317" type="veh_passenger" depart="854.67" departLane="best" departSpeed="max" from="270392630" to="256507648"/>
    <trip id="veh321" type="veh_passenger" depart="865.46" departLane="best" departSpeed="max" from="270367431" to="270376454"/>
    <trip id="veh323" type="veh_passenger" depart="870.85" departLane="best" departSpeed="max" from="270392630" to="8094395"/>
    <trip id="veh325" type="veh_passenger" depart="876.24" departLane="best" departSpeed="max" from="270392630" to="256507648"/>
    <trip id="veh326" type="veh_passenger" depart="878.94" departLane="best" departSpeed="max" from="270392630" to="270367419"/>
    <trip id="veh332" type="veh_passenger" depart="895.11" departLane="best" departSpeed="max" from="5081498#0" to="270367419"/>
    <trip id="veh333" type="veh_passenger" depart="897.81" departLane="best" departSpeed="max" from="132846158" to="270367419"/>
    <trip id="veh334" type="veh_passenger" depart="900.51" departLane="best" departSpeed="max" from="270392630" to="383821432"/>
    <trip id="veh336" type="veh_passenger" depart="905.90" departLane="best" departSpeed="max" from="270392630" to="270367419"/>
    <trip id="veh339" type="veh_passenger" depart="913.99" departLane="best" departSpeed="max" from="270367431" to="270376454"/>
    <trip id="veh340" type="veh_passenger" depart="916.68" departLane="best" departSpeed="max" from="270392630" to="383821432"/>
    <trip id="veh343" type="veh_passenger" depart="924.77" departLane="best" departSpeed="max" from="135254875" to="270376454"/>
    <trip id="veh345" type="veh_passenger" depart="930.16" departLane="best" departSpeed="max" from="270392630" to="270367419"/>
    <trip id="veh346" type="veh_passenger" depart="932.86" departLane="best" departSpeed="max" from="135254875" to="270376454"/>
    <trip id="veh348" type="veh_passenger" depart="938.25" departLane="best" departSpeed="max" from="270392630" to="383821432"/>
    <trip id="veh350" type="veh_passenger" depart="943.64" departLane="best" departSpeed="max" from="24959485" to="270367419"/>
    <trip id="veh352" type="veh_passenger" depart="949.04" departLane="best" departSpeed="max" from="4366988" to="270376454"/>
    <trip id="veh354" type="veh_passenger" depart="954.43" departLane="best" departSpeed="max" from="24959485" to="270367419"/>
    <trip id="veh356" type="veh_passenger" depart="959.82" departLane="best" departSpeed="max" from="4366988" to="270376454"/>
    <trip id="veh357" type="veh_passenger" depart="962.52" departLane="best" departSpeed="max" from="24959485" to="270367419"/>
    <trip id="veh358" type="veh_passenger" depart="965.21" departLane="best" departSpeed="max" from="270392630" to="270367419"/>
    <trip id="veh360" type="veh_passenger" depart="970.60" departLane="best" departSpeed="max" from="24959485" to="270367419"/>
    <trip id="veh361" type="veh_passenger" depart="973.30" departLane="best" departSpeed="max" from="270367431" to="24960346"/>
    <trip id="veh362" type="veh_passenger" depart="976.00" departLane="best" departSpeed="max" from="270392630" to="270367419"/>
    <trip id="veh365" type="veh_passenger" depart="984.09" departLane="best" departSpeed="max" from="256507659" to="270367419"/>
    <trip id="veh366" type="veh_passenger" depart="986.78" departLane="best" departSpeed="max" from="132846158" to="270367419"/>
    <trip id="veh369" type="veh_passenger" depart="994.87" departLane="best" departSpeed="max" from="270392630" to="256507648"/>
    <trip id="veh370" type="veh_passenger" depart="997.57" departLane="best" departSpeed="max" from="270392630" to="383821432"/>
    <trip id="veh371" type="veh_passenger" depart="1000.26" departLane="best" departSpeed="max" from="270392630" to="256507648"/>
    <trip id="veh372" type="veh_passenger" depart="1002.96" departLane="best" departSpeed="max" from="270392630" to="23886552"/>
    <trip id="veh375" type="veh_passenger" depart="1011.05" departLane="best" departSpeed="max" from="270392630" to="8094395"/>
    <trip id="veh378" type="veh_passenger" depart="1019.14" departLane="best" departSpeed="max" from="27853330" to="270376454"/>
    <trip id="veh380" type="veh_passenger" depart="1024.53" departLane="best" departSpeed="max" from="5081498#0" to="23886552"/>
    <trip id="veh381" type="veh_passenger" depart="1027.22" departLane="best" departSpeed="max" from="270392630" to="8094395"/>
    <trip id="veh383" type="veh_passenger" depart="1032.62" departLane="best" departSpeed="max" from="270367431" to="270376454"/>
    <trip id="veh384" type="veh_passenger" depart="1035.31" departLane="best" departSpeed="max" from="132846158" to="270367419"/>
    <trip id="veh385" type="veh_passenger" depart="1038.01" departLane="best" departSpeed="max" from="270367431" to="270376454"/>
    <trip id="veh386" type="veh_passenger" depart="1040.70" departLane="best" departSpeed="max" from="270392630" to="270367419"/>
    <trip id="veh388" type="veh_passenger" depart="1046.10" departLane="best" departSpeed="max" from="135254875" to="24960346"/>
    <trip id="veh390" type="veh_passenger" depart="1051.49" departLane="best" departSpeed="max" from="270392630" to="383821432"/>
    <trip id="veh393" type="veh_passenger" depart="1059.58" departLane="best" departSpeed="max" from="256507659" to="270367419"/>
    <trip id="veh394" type="veh_passenger" depart="1062.27" departLane="best" departSpeed="max" from="256507659" to="270367419"/>
    <trip id="veh396" type="veh_passenger" depart="1067.67" departLane="best" departSpeed="max" from="24959485" to="270367419"/>
    <trip id="veh397" type="veh_passenger" depart="1070.36" departLane="best" departSpeed="max" from="5081498#0" to="270367419"/>
    <trip id="veh400" type="veh_passenger" depart="1078.45" departLane="best" departSpeed="max" from="135254875" to="270376454"/>
    <trip id="veh401" type="veh_passenger" depart="1081.15" departLane="best" departSpeed="max" from="270392630" to="8094395"/>
    <trip id="veh407" type="veh_passenger" depart="1097.32" departLane="best" departSpeed="max" from="135254875" to="270376454"/>
    <trip id="veh417" type="veh_passenger" depart="1124.28" departLane="best" departSpeed="max" from="270392630" to="270367419"/>
    <trip id="veh418" type="veh_passenger" depart="1126.98" departLane="best" departSpeed="max" from="270392630" to="270367419"/>
    <trip id="veh419" type="veh_passenger" depart="1129.68" departLane="best" departSpeed="max" from="270392630" to="270367419"/>
    <trip id="veh421" type="veh_passenger" depart="1135.07" departLane="best" departSpeed="max" from="270392630" to="383821432"/>
    <trip id="veh422" type="veh_passenger" depart="1137.76" departLane="best" departSpeed="max" from="270392630" to="270367419"/>
    <trip id="veh425" type="veh_passenger" depart="1145.85" departLane="best" departSpeed="max" from="270392630" to="270367419"/>
    <trip id="veh426" type="veh_passenger" depart="1148.55" departLane="best" departSpeed="max" from="256507659" to="8094395"/>
    <trip id="veh427" type="veh_passenger" depart="1151.25" departLane="best" departSpeed="max" from="270392630" to="23886552"/>
    <trip id="veh428" type="veh_passenger" depart="1153.94" departLane="best" departSpeed="max" from="270392630" to="383821432"/>
    <trip id="veh430" type="veh_passenger" depart="1159.33" departLane="best" departSpeed="max" from="270367431" to="24959390"/>
    <trip id="veh432" type="veh_passenger" depart="1164.73" departLane="best" departSpeed="max" from="270367431" to="270376454"/>