<?xml version="1.0" encoding="UTF-8"?>

<!-- generated on 2024-04-25 12:20:42.435866 by osmWebWizard.py v1_19_0+0000-baa66a0f364
<configuration>
    <net-file value="F:\SUMO\OptimalEmission-SUMO-ReinforcementLearning\2024-04-25-12-20-28\osm.net.xml.gz"/>
    <output-trip-file value="F:\SUMO\OptimalEmission-SUMO-ReinforcementLearning\2024-04-25-12-20-28\osm.truck.trips.xml"/>
    <route-file value="F:\SUMO\OptimalEmission-SUMO-ReinforcementLearning\2024-04-25-12-20-28\osm.truck.rou.xml"/>
    <prefix value="truck"/>
    <trip-attributes value="departLane=&quot;best&quot;"/>
    <fringe-start-attributes value="departSpeed=&quot;max&quot;"/>
    <vehicle-class value="truck"/>
    <fringe-factor value="5"/>
    <vclass value="truck"/>
    <via-edge-types value="highway.motorway,highway.motorway_link,highway.trunk_link,highway.primary_link,highway.secondary_link,highway.tertiary_link"/>
    <min-distance value="600.0"/>
    <min-distance.fringe value="10.0"/>
    <remove-loops value="True"/>
    <validate value="True"/>
    <end value="60000.0"/>
    <insertion-density value="8.0"/>
</configuration>
-->

<!-- generated on 2024-04-25 12:20:41 by Eclipse SUMO duarouter Version 1.19.0
<configuration xmlns:xsi="http://www.w3.org/2001/XMLSchema-instance" xsi:noNamespaceSchemaLocation="http://sumo.dlr.de/xsd/duarouterConfiguration.xsd">

    <input>
        <net-file value="F:\SUMO\OptimalEmission-SUMO-ReinforcementLearning\2024-04-25-12-20-28\osm.net.xml.gz"/>
        <route-files value="F:\SUMO\OptimalEmission-SUMO-ReinforcementLearning\2024-04-25-12-20-28\osm.truck.trips.xml"/>
    </input>

    <output>
        <output-file value="F:\SUMO\OptimalEmission-SUMO-ReinforcementLearning\2024-04-25-12-20-28\osm.truck.trips.xml.tmp"/>
        <alternatives-output value="NUL"/>
        <write-trips value="true"/>
    </output>

    <processing>
        <remove-loops value="true"/>
    </processing>

    <time>
        <begin value="0.0"/>
        <end value="60000.0"/>
    </time>

    <report>
        <no-warnings value="true"/>
        <ignore-errors value="true"/>
        <no-step-log value="true"/>
    </report>

</configuration>
-->

<routes xmlns:xsi="http://www.w3.org/2001/XMLSchema-instance" xsi:noNamespaceSchemaLocation="http://sumo.dlr.de/xsd/routes_file.xsd">
    <vType id="truck_truck" vClass="truck"/>
    <trip id="truck1" type="truck_truck" depart="4.04" departLane="best" departSpeed="max" from="27853330" to="270376454"/>
    <trip id="truck4" type="truck_truck" depart="16.18" departLane="best" departSpeed="max" from="270392630" to="256507648"/>
    <trip id="truck5" type="truck_truck" depart="20.22" departLane="best" departSpeed="max" from="24959485" to="270367419"/>
    <trip id="truck6" type="truck_truck" depart="24.27" departLane="best" departSpeed="max" from="4366988" to="270376454"/>
    <trip id="truck10" type="truck_truck" depart="40.44" departLane="best" departSpeed="max" from="4366988" to="270376454"/>
    <trip id="truck15" type="truck_truck" depart="60.66" departLane="best" departSpeed="max" from="27853330" to="160247335"/>
    <trip id="truck17" type="truck_truck" depart="68.75" departLane="best" departSpeed="max" from="270392630" to="270367419"/>
    <trip id="truck18" type="truck_truck" depart="72.80" departLane="best" departSpeed="max" from="135254875" to="270376454"/>
    <trip id="truck19" type="truck_truck" depart="76.84" departLane="best" departSpeed="max" from="135254875" to="24960346"/>
    <trip id="truck20" type="truck_truck" depart="80.88" departLane="best" departSpeed="max" from="5081498#0" to="270367419"/>
    <trip id="truck21" type="truck_truck" depart="84.93" departLane="best" departSpeed="max" from="270367431" to="270376454"/>
    <trip id="truck22" type="truck_truck" depart="88.97" departLane="best" departSpeed="max" from="4366988" to="270376454"/>
    <trip id="truck27" type="truck_truck" depart="109.19" departLane="best" departSpeed="max" from="270367431" to="24959390"/>
    <trip id="truck33" type="truck_truck" depart="133.46" departLane="best" departSpeed="max" from="270392630" to="256507648"/>
    <trip id="truck34" type="truck_truck" depart="137.50" departLane="best" departSpeed="max" from="24959485" to="270367419"/>
    <trip id="truck35" type="truck_truck" depart="141.55" departLane="best" departSpeed="max" from="135254875" to="24960346"/>
    <trip id="truck36" type="truck_truck" depart="145.59" departLane="best" departSpeed="max" from="256507659" to="8094395"/>
    <trip id="truck39" type="truck_truck" depart="157.72" departLane="best" departSpeed="max" from="24959485" to="270367419"/>
    <trip id="truck40" type="truck_truck" depart="161.77" departLane="best" departSpeed="max" from="270392630" to="23886552"/>
    <trip id="truck48" type="truck_truck" depart="194.12" departLane="best" departSpeed="max" from="256507659" to="23886552"/>
    <trip id="truck49" type="truck_truck" depart="198.17" departLane="best" departSpeed="max" from="270367431" to="270376454"/>
    <trip id="truck50" type="truck_truck" depart="202.21" departLane="best" departSpeed="max" from="5081498#0" to="270367419"/>
    <trip id="truck51" type="truck_truck" depart="206.25" departLane="best" departSpeed="max" from="24960184" to="270367419"/>
    <trip id="truck53" type="truck_truck" depart="214.34" departLane="best" departSpeed="max" from="132846158" to="270367419"/>
    <trip id="truck56" type="truck_truck" depart="226.47" departLane="best" departSpeed="max" from="5081498#0" to="270367419"/>
    <trip id="truck59" type="truck_truck" depart="238.61" departLane="best" departSpeed="max" from="27853330" to="270376454"/>
    <trip id="truck64" type="truck_truck" depart="258.83" departLane="best" departSpeed="max" from="270367431" to="160247335"/>
    <trip id="truck65" type="truck_truck" depart="262.87" departLane="best" departSpeed="max" from="5081498#0" to="8094395"/>
    <trip id="truck67" type="truck_truck" depart="270.96" departLane="best" departSpeed="max" from="256507659" to="23886552"/>
    <trip id="truck68" type="truck_truck" depart="275.00" departLane="best" departSpeed="max" from="24960184" to="8094395"/>
    <trip id="truck71" type="truck_truck" depart="287.14" departLane="best" departSpeed="max" from="5081498#0" to="8094395"/>
    <trip id="truck72" type="truck_truck" depart="291.18" departLane="best" departSpeed="max" from="270367431" to="270376454"/>
    <trip id="truck73" type="truck_truck" depart="295.23" departLane="best" departSpeed="max" from="5081498#0" to="270367419"/>
    <trip id="truck74" type="truck_truck" depart="299.27" departLane="best" departSpeed="max" from="270367431" to="270376454"/>
    <trip id="truck75" type="truck_truck" depart="303.31" departLane="best" departSpeed="max" from="132846158" to="270367419"/>
    <trip id="truck78" type="truck_truck" depart="315.45" departLane="best" departSpeed="max" from="270367431" to="270376454"/>
    <trip id="truck81" type="truck_truck" depart="327.58" departLane="best" departSpeed="max" from="256507659" to="270367419"/>
    <trip id="truck88" type="truck_truck" depart="355.89" departLane="best" departSpeed="max" from="5081498#0" to="8094395"/>
    <trip id="truck90" type="truck_truck" depart="363.98" departLane="best" departSpeed="max" from="4366988" to="270376454"/>
    <trip id="truck91" type="truck_truck" depart="368.02" departLane="best" departSpeed="max" from="270392630" to="8094395"/>
    <trip id="truck94" type="truck_truck" depart="380.15" departLane="best" departSpeed="max" from="270392630" to="8094395"/>
    <trip id="truck97" type="truck_truck" depart="392.29" departLane="best" departSpeed="max" from="24959485" to="270367419"/>
    <trip id="truck99" type="truck_truck" depart="400.37" departLane="best" departSpeed="max" from="256507659" to="8094395"/>
    <trip id="truck107" type="truck_truck" depart="432.73" departLane="best" departSpeed="max" from="24960184" to="8094395"/>
    <trip id="truck112" type="truck_truck" depart="452.95" departLane="best" departSpeed="max" from="256507659" to="270367419"/>
    <trip id="truck115" type="truck_truck" depart="465.08" departLane="best" departSpeed="max" from="24960184" to="8094395"/>
    <trip id="truck117" type="truck_truck" depart="473.17" departLane="best" departSpeed="max" from="27853330" to="160247335"/>
    <trip id="truck125" type="truck_truck" depart="505.52" departLane="best" departSpeed="max" from="5081498#0" to="23886552"/>
    <trip id="truck126" type="truck_truck" depart="509.57" departLane="best" departSpeed="max" from="5081498#0" to="23886552"/>
    <trip id="truck128" type="truck_truck" depart="517.66" departLane="best" departSpeed="max" from="135254875" to="24960346"/>
    <trip id="truck130" type="truck_truck" depart="525.74" departLane="best" departSpeed="max" from="270392630" to="256507648"/>
    <trip id="truck131" type="truck_truck" depart="529.79" departLane="best" departSpeed="max" from="24960184" to="270367419"/>
    <trip id="truck133" type="truck_truck" depart="537.88" departLane="best" departSpeed="max" from="270367431" to="270376454"/>
    <trip id="truck134" type="truck_truck" depart="541.92" departLane="best" departSpeed="max" from="27853330" to="270376454"/>
    <trip id="truck140" type="truck_truck" depart="566.19" departLane="best" departSpeed="max" from="135254875" to="24960346"/>
    <trip id="truck142" type="truck_truck" depart="574.27" departLane="best" departSpeed="max" from="5081498#0" to="270367419"/>
    <trip id="truck144" type="truck_truck" depart="582.36" departLane="best" departSpeed="max" from="256507659" to="270367419"/>
    <trip id="truck145" type="truck_truck" depart="586.41" departLane="best" departSpeed="max" from="270392630" to="256507648"/>
    <trip id="truck146" type="truck_truck" depart="590.45" departLane="best" departSpeed="max" from="256507659" to="23886552"/>
    <trip id="truck147" type="truck_truck" depart="594.50" departLane="best" departSpeed="max" from="256507659" to="8094395"/>
    <trip id="truck150" type="truck_truck" depart="606.63" departLane="best" departSpeed="max" from="4366988" to="270376454"/>
    <trip id="truck152" type="truck_truck" depart="614.72" departLane="best" departSpeed="max" from="135254875" to="160247335"/>
    <trip id="truck154" type="truck_truck" depart="622.80" departLane="best" departSpeed="max" from="256507659" to="270367419"/>
    <trip id="truck155" type="truck_truck" depart="626.85" departLane="best" departSpeed="max" from="135254875" to="270376454"/>
    <trip id="truck158" type="truck_truck" depart="638.98" departLane="best" departSpeed="max" from="27853330" to="270376454"/>
    <trip id="truck159" type="truck_truck" depart="643.03" departLane="best" departSpeed="max" from="135254875" to="24960346"/>
    <trip id="truck160" type="truck_truck" depart="647.07" departLane="best" departSpeed="max" from="270367431" to="160247335"/>
    <trip id="truck162" type="truck_truck" depart="655.16" departLane="best" departSpeed="max" from="270392630" to="8094395"/>
    <trip id="truck166" type="truck_truck" depart="671.34" departLane="best" departSpeed="max" from="4366988" to="270376454"/>
    <trip id="truck168" type="truck_truck" depart="679.42" departLane="best" departSpeed="max" from="24959485" to="270367419"/>
    <trip id="truck173" type="truck_truck" depart="699.64" departLane="best" departSpeed="max" from="27853330" to="160247335"/>
    <trip id="truck174" type="truck_truck" depart="703.69" departLane="best" departSpeed="max" from="256507659" to="23886552"/>
    <trip id="truck175" type="truck_truck" depart="707.73" departLane="best" departSpeed="max" from="256507659" to="8094395"/>
    <trip id="truck176" type="truck_truck" depart="711.78" departLane="best" departSpeed="max" from="270367431" to="270376454"/>
    <trip id="truck177" type="truck_truck" depart="715.82" departLane="best" departSpeed="max" from="4366988" to="270376454"/>
    <trip id="truck184" type="truck_truck" depart="744.13" departLane="best" departSpeed="max" from="256507659" to="23886552"/>
    <trip id="truck185" type="truck_truck" depart="748.17" departLane="best" departSpeed="max" from="256507659" to="23886552"/>
    <trip id="truck187" type="truck_truck" depart="756.26" departLane="best" departSpeed="max" from="24960184" to="270367419"/>
    <trip id="truck188" type="truck_truck" depart="760.31" departLane="best" departSpeed="max" from="132846158" to="270367419"/>
    <trip id="truck195" type="truck_truck" depart="788.62" departLane="best" departSpeed="max" from="270392630" to="383821432"/>
    <trip id="truck196" type="truck_truck" depart="792.66" departLane="best" departSpeed="max" from="5081498#0" to="23886552"/>
    <trip id="truck198" type="truck_truck" depart="800.75" departLane="best" departSpeed="max" from="135254875" to="270376454"/>
    <trip id="truck202" type="truck_truck" depart="816.93" departLane="best" departSpeed="max" from="135254875" to="160247335"/>
    <trip id="truck205" type="truck_truck" depart="829.06" departLane="best" departSpeed="max" from="27853330" to="160247335"/>
    <trip id="truck206" type="truck_truck" depart="833.10" departLane="best" departSpeed="max" from="270392630" to="270367419"/>
    <trip id="truck207" type="truck_truck" depart="837.15" departLane="best" departSpeed="max" from="135254875" to="270376454"/>
    <trip id="truck210" type="truck_truck" depart="849.28" departLane="best" departSpeed="max" from="270367431" to="24960346"/>
    <trip id="truck211" type="truck_truck" depart="853.32" departLane="best" departSpeed="max" from="270392630" to="383821432"/>
    <trip id="truck218" type="truck_truck" depart="881.63" departLane="best" departSpeed="max" from="256507659" to="270367419"/>
    <trip id="truck226" type="truck_truck" depart="913.99" departLane="best" departSpeed="max" from="270392630" to="270367419"/>
    <trip id="truck230" type="truck_truck" depart="930.16" departLane="best" departSpeed="max" from="270367431" to="24960346"/>
    <trip id="truck235" type="truck_truck" depart="950.38" departLane="best" departSpeed="max" from="270367431" to="270376454"/>
    <trip id="truck239" type="truck_truck" depart="966.56" departLane="best" departSpeed="max" from="135254875" to="160247335"/>
    <trip id="truck240" type="truck_truck" depart="970.60" departLane="best" departSpeed="max" from="270367431" to="24959390"/>
    <trip id="truck241" type="truck_truck" depart="974.65" departLane="best" departSpeed="max" from="270392630" to="23886552"/>
    <trip id="truck244" type="truck_truck" depart="986.78" departLane="best" departSpeed="max" from="135254875" to="160247335"/>
    <trip id="truck246" type="truck_truck" depart="994.87" departLane="best" departSpeed="max" from="132846158" to="270367419"/>
    <trip id="truck248" type="truck_truck" depart="1002.96" departLane="best" departSpeed="max" from="270367431" to="24959390"/>
    <trip id="truck249" type="truck_truck" depart="1007.00" departLane="best" departSpeed="max" from="5081498#0" to="23886552"/>
    <trip id="truck254" type="truck_truck" depart="1027.22" departLane="best" departSpeed="max" from="270392630" to="270367419"/>
    <trip id="truck257" type="truck_truck" depart="1039.36" departLane="best" departSpeed="max" from="270392630" to="23886552"/>
    <trip id="truck258" type="truck_truck" depart="1043.40" departLane="best" departSpeed="max" from="135254875" to="160247335"/>
    <trip id="truck260" type="truck_truck" depart="1051.49" departLane="best" departSpeed="max" from="270367431" to="24959390"/>
    <trip id="truck263" type="truck_truck" depart="1063.62" departLane="best" departSpeed="max" from="270392630" to="8094395"/>
    <trip id="truck265" type="truck_truck" depart="1071.71" departLane="best" departSpeed="max" from="270392630" to="8094395"/>
    <trip id="truck266" type="truck_truck" depart="1075.75" departLane="best" departSpeed="max" from="270392630" to="8094395"/>
    <trip id="truck272" type="truck_truck" depart="1100.02" departLane="best" departSpeed="max" from="5081498#0" to="8094395"/>
    <trip id="truck275" type="truck_truck" depart="1112.15" departLane="best" departSpeed="max" from="256507659" to="270367419"/>
    <trip id="truck276" type="truck_truck" depart="1116.20" departLane="best" departSpeed="max" from="5081498#0" to="23886552"/>
    <trip id="truck278" type="truck_truck" depart="1124.28" departLane="best" departSpeed="max" from="270392630" to="383821432"/>
    <trip id="truck281" type="truck_truck" depart="1136.42" departLane="best" departSpeed="max" from="24960184" to="8094395"/>
    <trip id="truck282" type="truck_truck" depart="1140.46" departLane="best" departSpeed="max" from="5081498#0" to="270367419"/>
    <trip id="truck283" type="truck_truck" depart="1144.50" departLane="best" departSpeed="max" from="270367431" to="24960346"/>
    <trip id="truck284" type="truck_truck" depart="1148.55" departLane="best" departSpeed="max" from="135254875" to="24960346"/>
    <trip id="truck290" type="truck_truck" depart="1172.81" departLane="best" departSpeed="max" from="270367431" to="160247335"/>
    <trip id="truck291" type="truck_truck" depart="1176.86" departLane="best" departSpeed="max" from="5081498#0" to="8094395"/>
    <trip id="truck292" type="truck_truck" depart="1180.90" departLane="best" departSpeed="max" from="256507659" to="23886552"/>
    <trip id="truck296" type="truck_truck" depart="1197.08" departLane="best" departSpeed="max" from="270367431" to="24960346"/>
    <trip id="truck298" type="truck_truck" depart="1205.17" departLane="best" departSpeed="max" from="256507659" to="8094395"/>
    <trip id="truck301" type="truck_truck" depart="1217.30" departLane="best" departSpeed="max" from="256507659" to="23886552"/>
    <trip id="truck302" type="truck_truck" depart="1221.34" departLane="best" departSpeed="max" from="270367431" to="24960346"/>
    <trip id="truck305" type="truck_truck" depart="1233.48" departLane="best" departSpeed="max" from="135254875" to="270376454"/>
    <trip id="truck306" type="truck_truck" depart="1237.52" departLane="best" departSpeed="max" from="270367431" to="24959390"/>
    <trip id="truck307" type="truck_truck" depart="1241.57" departLane="best" departSpeed="max" from="27853330" to="160247335"/>
    <trip id="truck308" type="truck_truck" depart="1245.61" departLane="best" departSpeed="max" from="27853330" to="270376454"/>
    <trip id="truck310" type="truck_truck" depart="1253.70" departLane="best" departSpeed="max" from="270392630" to="383821432"/>
    <trip id="truck315" type="truck_truck" depart="1273.92" departLane="best" departSpeed="max" from="270392630" to="23886552"/>
    <trip id="truck316" type="truck_truck" depart="1277.96" departLane="best" departSpeed="max" from="256507659" to="8094395"/>
    <trip id="truck318" type="truck_truck" depart="1286.05" departLane="best" departSpeed="max" from="270392630" to="383821432"/>
    <trip id="truck320" type="truck_truck" depart="1294.14" departLane="best" departSpeed="max" from="27853330" to="270376454"/>
    <trip id="truck321" type="truck_truck" depart="1298.18" departLane="best" departSpeed="max" from="132846158" to="270367419"/>
    <trip id="truck322" type="truck_truck" depart="1302.23" departLane="best" departSpeed="max" from="5081498#0" to="8094395"/>
    <trip id="truck323" type="truck_truck" depart="1306.27" departLane="best" departSpeed="max" from="132846158" to="270367419"/>
    <trip id="truck325" type="truck_truck" depart="1314.36" departLane="best" departSpeed="max" from="270392630" to="8094395"/>
    <trip id="truck330" type="truck_truck" depart="1334.58" departLane="best" departSpeed="max" from="135254875" to="160247335"/>
    <trip id="truck335" type="truck_truck" depart="1354.80" departLane="best" departSpeed="max" from="135254875" to="24960346"/>
    <trip id="truck336" type="truck_truck" depart="1358.85" departLane="best" departSpeed="max" from="24960184" to="270367419"/>
    <trip id="truck339" type="truck_truck" depart="1370.98" departLane="best" departSpeed="max" from="135254875" to="24960346"/>
    <trip id="truck342" type="truck_truck" depart="1383.11" departLane="best" departSpeed="max" from="5081498#0" to="270367419"/>
    <trip id="truck343" type="truck_truck" depart="1387.16" departLane="best" departSpeed="max" from="24959485" to="270367419"/>
    <trip id="truck344" type="truck_truck" depart="1391.20" departLane="best" departSpeed="max" from="132846158" to="270367419"/>
    <trip id="truck345" type="truck_truck" depart="1395.24" departLane="best" departSpeed="max" from="256507659" to="8094395"/>
    <trip id="truck348" type="truck_truck" depart="1407.38" departLane="best" departSpeed="max" from="270392630" to="270367419"/>
    <trip id="truck349" type="truck_truck" depart="1411.42" departLane="best" departSpeed="max" from="270392630" to="383821432"/>
    <trip id="truck350" type="truck_truck" depart="1415.47" departLane="best" departSpeed="max" from="270392630" to="8094395"/>
    <trip id="truck352" type="truck_truck" depart="1423.55" departLane="best" departSpeed="max" from="256507659" to="270367419"/>
    <trip id="truck353" type="truck_truck" depart="1427.60" departLane="best" departSpeed="max" from="27853330" to="160247335"/>
    <trip id="truck359" type="truck_truck" depart="1451.86" departLane="best" departSpeed="max" from="4366988" to="270376454"/>
    <trip id="truck360" type="truck_truck" depart="1455.91" departLane="best" departSpeed="max" from="5081498#0" to="23886552"/>
    <trip id="truck365" type="truck_truck" depart="1476.13" departLane="best" departSpeed="max" from="270392630" to="270367419"/>
    <trip id="truck379" type="truck_truck" depart="1532.75" departLane="best" departSpeed="max" from="270392630" to="270367419"/>
    <trip id="truck380" type="truck_truck" depart="1536.79" departLane="best" departSpeed="max" from="270367431" to="160247335"/>
    <trip id="truck391" type="truck_truck" depart="1581.28" departLane="best" departSpeed="max" from="135254875" to="160247335"/>
    <trip id="truck399" type="truck_truck" depart="1613.63" departLane="best" departSpeed="max" from="270392630" to="256507648"/>
    <trip id="truck400" type="truck_truck" depart="1617.67" departLane="best" departSpeed="max" from="132846158" to="270367419"/>
    <trip id="truck401" type="truck_truck" depart="1621.72" departLane="best" departSpeed="max" from="270392630" to="256507648"/>
    <trip id="truck402" type="truck_truck" depart="1625.76" departLane="best" departSpeed="max" from="24960184" to="8094395"/>
    <trip id="truck408" type="truck_truck" depart="1650.03" departLane="best" departSpeed="max" from="256507659" to="270367419"/>
    <trip id="truck411" type="truck_truck" depart="1662.16" departLane="best" departSpeed="max" from="24960184" to="270367419"/>
    <trip id="truck427" type="truck_truck" depart="1726.87" departLane="best" departSpeed="max" from="256507659" to="23886552"/>
    <trip id="truck435" type="truck_truck" depart="1759.22" departLane="best" departSpeed="max" from="270392630" to="256507648"/>
    <trip id="truck438" type="truck_truck" depart="1771.35" departLane="best" departSpeed="max" from="270392630" to="256507648"/>
    <trip id="truck440" type="truck_truck" depart="1779.44" departLane="best" departSpeed="max" from="24960184" to="270367419"/>
    <trip id="truck443" type="truck_truck" depart="1791.57" departLane="best" departSpeed="max" from="135254875" to="24960346"/>
    <trip id="truck447" type="truck_truck" depart="1807.75" departLane="best" departSpeed="max" from="135254875" to="160247335"/>
    <trip id="truck449" type="truck_truck" depart="1815.84" departLane="best" departSpeed="max" from="270392630" to="383821432"/>
    <trip id="truck460" type="truck_truck" depart="1860.33" departLane="best" departSpeed="max" from="270392630" to="23886552"/>
    <trip id="truck462" type="truck_truck" depart="1868.41" departLane="best" departSpeed="max" from="27853330" to="270376454"/>
    <trip id="truck463" type="truck_truck" depart="1872.46" departLane="best" departSpeed="max" from="256507659" to="8094395"/>
    <trip id="truck464" type="truck_truck" depart="1876.50" departLane="best" departSpeed="max" from="270392630" to="383821432"/>
    <trip id="truck465" type="truck_truck" depart="1880.55" departLane="best" departSpeed="max" from="270392630" to="23886552"/>
    <trip id="truck477" type="truck_truck" depart="1929.08" departLane="best" departSpeed="max" from="135254875" to="160247335"/>
    <trip id="truck481" type="truck_truck" depart="1945.25" departLane="best" departSpeed="max" from="135254875" to="24960346"/>
    <trip id="truck483" type="truck_truck" depart="1953.34" departLane="best" departSpeed="max" from="24960184" to="270367419"/>
    <trip id="truck488" type="truck_truck" depart="1973.56" departLane="best" departSpeed="max" from="24960184" to="270367419"/>
    <trip id="truck489" type="truck_truck" depart="1977.61" departLane="best" departSpeed="max" from="135254875" to="24960346"/>
    <trip id="truck491" type="truck_truck" depart="1985.70" departLane="best" departSpeed="max" from="24960184" to="270367419"/>
    <trip id="truck494" type="truck_truck" depart="1997.83" departLane="best" departSpeed="max" from="4366988" to="270376454"/>
    <trip id="truck495" type="truck_truck" depart="2001.87" departLane="best" departSpeed="max" from="4366988" to="270376454"/>
    <trip id="truck496" type="truck_truck" depart="2005.92" departLane="best" departSpeed="max" from="270392630" to="256507648"/>
    <trip id="truck501" type="truck_truck" depart="2026.14" departLane="best" departSpeed="max" from="135254875" to="270376454"/>
    <trip id="truck503" type="truck_truck" depart="2034.23" departLane="best" departSpeed="max" from="4366988" to="270376454"/>
    <trip id="truck509" type="truck_truck" depart="2058.49" departLane="best" departSpeed="max" from="270367431" to="24959390"/>
    <trip id="truck511" type="truck_truck" depart="2066.58" departLane="best" departSpeed="max" from="5081498#0" to="8094395"/>
    <trip id="truck515" type="truck_truck" depart="2082.76" departLane="best" departSpeed="max" from="24959485" to="270367419"/>
    <trip id="truck519" type="truck_truck" depart="2098.93" departLane="best" departSpeed="max" from="5081498#0" to="23886552"/>
    <trip id="truck520" type="truck_truck" depart="2102.98" departLane="best" departSpeed="max" from="256507659" to="8094395"/>
    <trip id="truck525" type="truck_truck" depart="2123.20" departLane="best" departSpeed="max" from="270392630" to="383821432"/>
    <trip id="truck526" type="truck_truck" depart="2127.24" departLane="best" departSpeed="max" from="4366988" to="270376454"/>
    <trip id="truck527" type="truck_truck" depart="2131.29" departLane="best" departSpeed="max" from="135254875" to="270376454"/>
    <trip id="truck530" type="truck_truck" depart="2143.42" departLane="best" departSpeed="max" from="5081498#0" to="270367419"/>
    <trip id="truck533" type="truck_truck" depart="2155.55" departLane="best" departSpeed="max" from="256507659" to="270367419"/>
    <trip id="truck538" type="truck_truck" depart="2175.77" departLane="best" departSpeed="max" from="270392630" to="8094395"/>
    <trip id="truck541" type="truck_truck" depart="2187.91" departLane="best" departSpeed="max" from="27853330" to="270376454"/>
    <trip id="truck546" type="truck_truck" depart="2208.13" departLane="best" departSpeed="max" from="270392630" to="383821432"/>
    <trip id="truck551" type="truck_truck" depart="2228.35" departLane="best" departSpeed="max" from="270367431" to="24959390"/>
    <trip id="truck554" type="truck_truck" depart="2240.48" departLane="best" departSpeed="max" from="135254875" to="24960346"/>
    <trip id="truck555" type="truck_truck" depart="2244.52" departLane="best" departSpeed="max" from="4366988" to="270376454"/>
    <trip id="truck557" type="truck_truck" depart="2252.61" departLane="best" departSpeed="max" from="256507659" to="8094395"/>
    <trip id="truck559" type="truck_truck" depart="2260.70" departLane="best" departSpeed="max" from="27853330" to="160247335"/>
    <trip id="truck560" type="truck_truck" depart="2264.74" departLane="best" departSpeed="max" from="270392630" to="383821432"/>
    <trip id="truck561" type="truck_truck" depart="2268.79" departLane="best" departSpeed="max" from="270367431" to="24959390"/>
    <trip id="truck562" type="truck_truck" depart="2272.83" departLane="best" departSpeed="max" from="132846158" to="270367419"/>
    <trip id="truck563" type="truck_truck" depart="2276.88" departLane="best" departSpeed="max" from="24960184" to="270367419"/>
    <trip id="truck568" type="truck_truck" depart="2297.10" departLane="best" departSpeed="max" from="5081498#0" to="8094395"/>
    <trip id="truck569" type="truck_truck" depart="2301.14" departLane="best" departSpeed="max" from="132846158" to="270367419"/>
    <trip id="truck571" type="truck_truck" depart="2309.23" departLane="best" departSpeed="max" from="270392630" to="8094395"/>
    <trip id="truck573" type="truck_truck" depart="2317.32" departLane="best" departSpeed="max" from="27853330" to="160247335"/>
    <trip id="truck575" type="truck_truck" depart="2325.41" departLane="best" departSpeed="max" from="270392630" to="8094395"/>
    <trip id="truck578" type="truck_truck" depart="2337.54" departLane="best" departSpeed="max" from="24960184" to="270367419"/>
    <trip id="truck581" type="truck_truck" depart="2349.67" departLane="best" departSpeed="max" from="24960184" to="270367419"/>
    <trip id="truck582" type="truck_truck" depart="2353.72" departLane="best" departSpeed="max" from="256507659" to="8094395"/>
    <trip id="truck583" type="truck_truck" depart="2357.76" departLane="best" departSpeed="max" from="256507659" to="23886552"/>
    <trip id="truck588" type="truck_truck" depart="2377.98" departLane="best" departSpeed="max" from="4366988" to="270376454"/>
    <trip id="truck589" type="truck_truck" depart="2382.03" departLane="best" departSpeed="max" from="5081498#0" to="270367419"/>