<?xml version="1.0" encoding="UTF-8"?>

<!-- generated on 2024-04-23 19:52:24.847339 by osmWebWizard.py v1_19_0+0000-baa66a0f364
<configuration>
    <net-file value="F:\SUMO\OptimalEmission-SUMO-ReinforcementLearning\2024-04-23-19-52-17\osm.net.xml.gz"/>
    <output-trip-file value="F:\SUMO\OptimalEmission-SUMO-ReinforcementLearning\2024-04-23-19-52-17\osm.bus.trips.xml"/>
    <route-file value="F:\SUMO\OptimalEmission-SUMO-ReinforcementLearning\2024-04-23-19-52-17\osm.bus.rou.xml"/>
    <prefix value="bus"/>
    <trip-attributes value="departLane=&quot;best&quot;"/>
    <fringe-start-attributes value="departSpeed=&quot;max&quot;"/>
    <vehicle-class value="bus"/>
    <fringe-factor value="5"/>
    <vclass value="bus"/>
    <via-edge-types value="highway.motorway,highway.motorway_link,highway.trunk_link,highway.primary_link,highway.secondary_link,highway.tertiary_link"/>
    <min-distance value="600.0"/>
    <min-distance.fringe value="10.0"/>
    <remove-loops value="True"/>
    <validate value="True"/>
    <insertion-density value="4.0"/>
</configuration>
-->

<!-- generated on 2024-04-23 19:52:24 by Eclipse SUMO duarouter Version 1.19.0
<configuration xmlns:xsi="http://www.w3.org/2001/XMLSchema-instance" xsi:noNamespaceSchemaLocation="http://sumo.dlr.de/xsd/duarouterConfiguration.xsd">

    <input>
        <net-file value="F:\SUMO\OptimalEmission-SUMO-ReinforcementLearning\2024-04-23-19-52-17\osm.net.xml.gz"/>
        <route-files value="F:\SUMO\OptimalEmission-SUMO-ReinforcementLearning\2024-04-23-19-52-17\osm.bus.trips.xml"/>
    </input>

    <output>
        <output-file value="F:\SUMO\OptimalEmission-SUMO-ReinforcementLearning\2024-04-23-19-52-17\osm.bus.trips.xml.tmp"/>
        <alternatives-output value="NUL"/>
        <write-trips value="true"/>
    </output>

    <processing>
        <remove-loops value="true"/>
    </processing>

    <time>
        <begin value="0.0"/>
        <end value="3600.0"/>
    </time>

    <report>
        <no-warnings value="true"/>
        <ignore-errors value="true"/>
        <no-step-log value="true"/>
    </report>

</configuration>
-->

<routes xmlns:xsi="http://www.w3.org/2001/XMLSchema-instance" xsi:noNamespaceSchemaLocation="http://sumo.dlr.de/xsd/routes_file.xsd">
    <vType id="bus_bus" vClass="bus"/>
    <trip id="bus1" type="bus_bus" depart="3.66" departLane="best" from="-233692706#9" to="-216981396#2"/>
    <trip id="bus2" type="bus_bus" depart="7.32" departLane="best" departSpeed="max" from="216984723#0" to="216980714#0"/>
    <trip id="bus3" type="bus_bus" depart="10.98" departLane="best" departSpeed="max" from="400965038" to="-207617087#3"/>
    <trip id="bus4" type="bus_bus" depart="14.64" departLane="best" from="932534550" to="-188589329"/>
    <trip id="bus5" type="bus_bus" depart="18.30" departLane="best" departSpeed="max" from="-216982405#3" to="207607923#0"/>
    <trip id="bus6" type="bus_bus" depart="21.96" departLane="best" from="188589326#8" to="-216970162#0"/>
    <trip id="bus7" type="bus_bus" depart="25.62" departLane="best" from="216969134" to="207617086#1"/>
    <trip id="bus8" type="bus_bus" depart="29.29" departLane="best" from="-216982406" to="207626987#4"/>
    <trip id="bus9" type="bus_bus" depart="32.95" departLane="best" from="233763129" to="186412743#5"/>
    <trip id="bus10" type="bus_bus" depart="36.61" departLane="best" from="233760103" to="216981398#4"/>
    <trip id="bus11" type="bus_bus" depart="40.27" departLane="best" departSpeed="max" from="-400807657#2" to="-207631119#0"/>
    <trip id="bus13" type="bus_bus" depart="47.59" departLane="best" from="-207617384#0" to="207617385#19"/>
    <trip id="bus14" type="bus_bus" depart="51.25" departLane="best" from="400237749#0" to="207628300#3"/>
    <trip id="bus15" type="bus_bus" depart="54.91" departLane="best" from="233760107" to="216984736#3"/>
    <trip id="bus16" type="bus_bus" depart="58.57" departLane="best" from="207613388#6" to="935382800"/>
    <trip id="bus17" type="bus_bus" depart="62.23" departLane="best" departSpeed="max" from="397936211#0" to="207629480#4"/>
    <trip id="bus18" type="bus_bus" depart="65.89" departLane="best" from="400409954#1" to="207626479#10"/>
    <trip id="bus19" type="bus_bus" depart="69.55" departLane="best" from="216981395#0" to="-207607923#10"/>
    <trip id="bus20" type="bus_bus" depart="73.21" departLane="best" from="-216984734" to="-233692706#9"/>
    <trip id="bus21" type="bus_bus" depart="76.87" departLane="best" from="-207613391#9" to="-216982401"/>
    <trip id="bus22" type="bus_bus" depart="80.54" departLane="best" from="-207617385#3" to="-233692704#5"/>
    <trip id="bus24" type="bus_bus" depart="87.86" departLane="best" from="-487965669#1" to="-216980036#0"/>
    <trip id="bus26" type="bus_bus" depart="95.18" departLane="best" from="216969130#1" to="207628690#5"/>
    <trip id="bus28" type="bus_bus" depart="102.50" departLane="best" from="-207631121#0" to="-487965669#0"/>
    <trip id="bus29" type="bus_bus" depart="106.16" departLane="best" from="216984716#5" to="-216965790#2"/>
    <trip id="bus30" type="bus_bus" depart="109.82" departLane="best" from="-207617384#3" to="216981389#5"/>
    <trip id="bus31" type="bus_bus" depart="113.48" departLane="best" from="400159440" to="233760086"/>
    <trip id="bus32" type="bus_bus" depart="117.14" departLane="best" from="-216984736#1" to="-188589333#0"/>
    <trip id="bus33" type="bus_bus" depart="120.80" departLane="best" from="-400525822#2" to="-216984759#0"/>
    <trip id="bus34" type="bus_bus" depart="124.46" departLane="best" from="-216981398#2" to="-732210983#2"/>
    <trip id="bus35" type="bus_bus" depart="128.12" departLane="best" from="-400747894#3" to="-397936211#0"/>
    <trip id="bus36" type="bus_bus" depart="131.79" departLane="best" from="216969139#6" to="-491323087#0"/>
    <trip id="bus37" type="bus_bus" depart="135.45" departLane="best" from="233692704#8" to="-216984729"/>
    <trip id="bus38" type="bus_bus" depart="139.11" departLane="best" from="-207617385#17" to="-216984746#3"/>
    <trip id="bus39" type="bus_bus" depart="142.77" departLane="best" from="207626987#1" to="487965667#10"/>
    <trip id="bus41" type="bus_bus" depart="150.09" departLane="best" from="972921372" to="207607923#8"/>
    <trip id="bus42" type="bus_bus" depart="153.75" departLane="best" from="-207617087#6" to="-207607923#2"/>
    <trip id="bus43" type="bus_bus" depart="157.41" departLane="best" from="207626475#8" to="-207631121#4"/>
    <trip id="bus44" type="bus_bus" depart="161.07" departLane="best" from="-233760084#2" to="-910697485"/>
    <trip id="bus45" type="bus_bus" depart="164.73" departLane="best" departSpeed="max" from="-207612566#3" to="-487965671#1"/>
    <trip id="bus46" type="bus_bus" depart="168.39" departLane="best" from="949948460#0" to="207613388#16"/>
    <trip id="bus47" type="bus_bus" depart="172.05" departLane="best" from="911207327#1" to="400747893#3"/>
    <trip id="bus48" type="bus_bus" depart="175.71" departLane="best" from="-186412743#6" to="216984733#0"/>
    <trip id="bus49" type="bus_bus" depart="179.37" departLane="best" departSpeed="max" from="216980036#0" to="207613391#10"/>
    <trip id="bus50" type="bus_bus" depart="183.04" departLane="best" from="-233692706#10" to="216965792#2"/>
    <trip id="bus51" type="bus_bus" depart="186.70" departLane="best" from="-207626476#4" to="-949270610"/>
    <trip id="bus52" type="bus_bus" depart="190.36" departLane="best" from="400747894#2" to="216984746#4"/>
    <trip id="bus53" type="bus_bus" depart="194.02" departLane="best" from="-188659818#0" to="-216965792#0"/>
    <trip id="bus54" type="bus_bus" depart="197.68" departLane="best" departSpeed="max" from="-397992455#5" to="-216965789#2"/>
    <trip id="bus55" type="bus_bus" depart="201.34" departLane="best" from="-207628690#3" to="-207629917#1"/>
    <trip id="bus56" type="bus_bus" depart="205.00" departLane="best" departSpeed="max" from="216984759#0" to="207613391#16"/>
    <trip id="bus57" type="bus_bus" depart="208.66" departLane="best" from="233692706#13" to="207613388#18"/>
    <trip id="bus58" type="bus_bus" depart="212.32" departLane="best" departSpeed="max" from="-1004514776" to="-400409949#2"/>
    <trip id="bus59" type="bus_bus" depart="215.98" departLane="best" from="-188589322#5" to="491327503#2"/>
    <trip id="bus60" type="bus_bus" depart="219.64" departLane="best" from="400807650" to="400237751#1"/>
    <trip id="bus61" type="bus_bus" depart="223.30" departLane="best" from="-400409949#2" to="-207609918#2"/>
    <trip id="bus62" type="bus_bus" depart="226.96" departLane="best" from="400751432" to="-732211001"/>
    <trip id="bus63" type="bus_bus" depart="230.62" departLane="best" from="-207617087#14" to="188589326#15"/>
    <trip id="bus64" type="bus_bus" depart="234.29" departLane="best" from="-207613388#20" to="-233692704#7"/>
    <trip id="bus65" type="bus_bus" depart="237.95" departLane="best" from="188546417#0" to="-207617087#19"/>
    <trip id="bus67" type="bus_bus" depart="245.27" departLane="best" from="-949948458#1" to="216969139#0"/>
    <trip id="bus68" type="bus_bus" depart="248.93" departLane="best" departSpeed="max" from="1004514785" to="207609918#12"/>
    <trip id="bus69" type="bus_bus" depart="252.59" departLane="best" from="207626479#3" to="-216981398#0"/>
    <trip id="bus70" type="bus_bus" depart="256.25" departLane="best" from="-400807656#3" to="-207626987#2"/>
    <trip id="bus71" type="bus_bus" depart="259.91" departLane="best" from="216984736#12" to="-216981388"/>
    <trip id="bus72" type="bus_bus" depart="263.57" departLane="best" from="-207613388#5" to="207632321#1"/>
    <trip id="bus73" type="bus_bus" depart="267.23" departLane="best" from="-216984736#1" to="487965670#1"/>
    <trip id="bus74" type="bus_bus" depart="270.89" departLane="best" departSpeed="max" from="400409954#0" to="-207613388#5"/>
    <trip id="bus75" type="bus_bus" depart="274.55" departLane="best" from="-216984739#1" to="216970816#2"/>
    <trip id="bus76" type="bus_bus" depart="278.21" departLane="best" from="216982397" to="207628299#11"/>
    <trip id="bus77" type="bus_bus" depart="281.87" departLane="best" from="491327449#1" to="207626475#5"/>
    <trip id="bus78" type="bus_bus" depart="285.54" departLane="best" from="188546078#2" to="233760097#12"/>
    <trip id="bus79" type="bus_bus" depart="289.20" departLane="best" from="233763106" to="-216970154#1"/>
    <trip id="bus80" type="bus_bus" depart="292.86" departLane="best" from="207617385#13" to="-917725347"/>
    <trip id="bus82" type="bus_bus" depart="300.18" departLane="best" from="216984716#8" to="216980043#2"/>
    <trip id="bus83" type="bus_bus" depart="303.84" departLane="best" from="935382799" to="-207617385#4"/>
    <trip id="bus85" type="bus_bus" depart="311.16" departLane="best" from="400409954#1" to="-216984736#10"/>
    <trip id="bus86" type="bus_bus" depart="314.82" departLane="best" from="-216970160#3" to="186410875#15"/>
    <trip id="bus87" type="bus_bus" depart="318.48" departLane="best" from="-932534550" to="-233692704#6"/>
    <trip id="bus88" type="bus_bus" depart="322.14" departLane="best" from="-216984755#1" to="491325494"/>
    <trip id="bus89" type="bus_bus" depart="325.80" departLane="best" from="186410875#13" to="400747893#3"/>
    <trip id="bus90" type="bus_bus" depart="329.46" departLane="best" from="207617087#2" to="-207607925#1"/>
    <trip id="bus91" type="bus_bus" depart="333.12" departLane="best" departSpeed="max" from="996164515" to="400409949#4"/>
    <trip id="bus92" type="bus_bus" depart="336.79" departLane="best" from="911091199#3" to="491327503#10"/>
    <trip id="bus93" type="bus_bus" depart="340.45" departLane="best" from="-400237751#0" to="-207632321#1"/>
    <trip id="bus94" type="bus_bus" depart="344.11" departLane="best" from="188589326#10" to="-216980042#0"/>
    <trip id="bus96" type="bus_bus" depart="351.43" departLane="best" from="491323084#10" to="949340121#2"/>
    <trip id="bus97" type="bus_bus" depart="355.09" departLane="best" from="233692704#9" to="233760097#11"/>
    <trip id="bus98" type="bus_bus" depart="358.75" departLane="best" from="186411801#5" to="-910791462#0"/>
    <trip id="bus100" type="bus_bus" depart="366.07" departLane="best" from="-207617384#1" to="216984725"/>
    <trip id="bus101" type="bus_bus" depart="369.73" departLane="best" from="-207629480#0" to="-233763130#2"/>
    <trip id="bus102" type="bus_bus" depart="373.39" departLane="best" from="911091199#3" to="207626479#15"/>
    <trip id="bus103" type="bus_bus" depart="377.05" departLane="best" from="-207613391#16" to="-216984759#1"/>
    <trip id="bus104" type="bus_bus" depart="380.71" departLane="best" from="-207609918#6" to="-207626479#5"/>
    <trip id="bus105" type="bus_bus" depart="384.37" departLane="best" from="188659819#2" to="400527278#0"/>
    <trip id="bus106" type="bus_bus" depart="388.04" departLane="best" from="-207629917#0" to="911207327#3"/>
    <trip id="bus107" type="bus_bus" depart="391.70" departLane="best" from="-207617086#0" to="-216969137#1"/>
    <trip id="bus108" type="bus_bus" depart="395.36" departLane="best" departSpeed="max" from="207628299#0" to="216980043#2"/>
    <trip id="bus109" type="bus_bus" depart="399.02" departLane="best" from="-216984736#3" to="207626987#11"/>
    <trip id="bus110" type="bus_bus" depart="402.68" departLane="best" from="400809387#5" to="216984728"/>
    <trip id="bus111" type="bus_bus" depart="406.34" departLane="best" departSpeed="max" from="207628299#0" to="-207629480#5"/>
    <trip id="bus112" type="bus_bus" depart="410.00" departLane="best" from="-917725347" to="-207626479#4"/>
    <trip id="bus113" type="bus_bus" depart="413.66" departLane="best" from="207609918#2" to="502705642#3"/>
    <trip id="bus114" type="bus_bus" depart="417.32" departLane="best" from="216980712#0" to="-216984720#7"/>
    <trip id="bus115" type="bus_bus" depart="420.98" departLane="best" from="216970162#7" to="-233763138#0"/>
    <trip id="bus116" type="bus_bus" depart="424.64" departLane="best" departSpeed="max" from="-400525822#3" to="233692704#1"/>
    <trip id="bus117" type="bus_bus" depart="428.30" departLane="best" from="-207613388#8" to="186411801#2"/>
    <trip id="bus118" type="bus_bus" depart="431.96" departLane="best" departSpeed="max" from="996164515" to="972921371"/>
    <trip id="bus119" type="bus_bus" depart="435.62" departLane="best" from="-207613391#0" to="-216980042#0"/>
    <trip id="bus120" type="bus_bus" depart="439.29" departLane="best" from="233692704#9" to="502705642#2"/>
    <trip id="bus121" type="bus_bus" depart="442.95" departLane="best" from="-400807655#1" to="400809387#5"/>
    <trip id="bus122" type="bus_bus" depart="446.61" departLane="best" from="-487965668#4" to="-207631119#5"/>
    <trip id="bus123" type="bus_bus" depart="450.27" departLane="best" from="-397992455#2" to="216982405#1"/>
    <trip id="bus124" type="bus_bus" depart="453.93" departLane="best" from="-207628692#2" to="949340122#2"/>
    <trip id="bus125" type="bus_bus" depart="457.59" departLane="best" from="216969139#2" to="186412743#9"/>
    <trip id="bus126" type="bus_bus" depart="461.25" departLane="best" from="-233763138#6" to="-233763138#0"/>
    <trip id="bus127" type="bus_bus" depart="464.91" departLane="best" from="-216970157#6" to="732210974#1"/>
    <trip id="bus128" type="bus_bus" depart="468.57" departLane="best" from="207628299#1" to="-207626479#2"/>
    <trip id="bus129" type="bus_bus" depart="472.23" departLane="best" from="-207626475#1" to="-207617087#6"/>
    <trip id="bus130" type="bus_bus" depart="475.89" departLane="best" from="216982399#0" to="-216970162#8"/>
    <trip id="bus132" type="bus_bus" depart="483.21" departLane="best" from="188589326#16" to="-487965670#1"/>
    <trip id="bus133" type="bus_bus" depart="486.87" departLane="best" from="400227124#6" to="-207617385#0"/>
    <trip id="bus135" type="bus_bus" depart="494.20" departLane="best" departSpeed="max" from="-1004514777" to="233692706#9"/>
    <trip id="bus137" type="bus_bus" depart="501.52" departLane="best" from="216984733#3" to="-207617087#22"/>
    <trip id="bus138" type="bus_bus" depart="505.18" departLane="best" departSpeed="max" from="-949272579#1" to="-188508701"/>
    <trip id="bus139" type="bus_bus" depart="508.84" departLane="best" from="-207613391#12" to="401028227"/>
    <trip id="bus140" type="bus_bus" depart="512.50" departLane="best" from="399990507" to="207626479#18"/>
    <trip id="bus141" type="bus_bus" depart="516.16" departLane="best" from="400409949#6" to="-487965667#3"/>
    <trip id="bus142" type="bus_bus" depart="519.82" departLane="best" from="233760094#1" to="400747893#3"/>
    <trip id="bus143" type="bus_bus" depart="523.48" departLane="best" from="401239540#8" to="-216980036#0"/>
    <trip id="bus144" type="bus_bus" depart="527.14" departLane="best" from="-216984755#0" to="207626475#2"/>
    <trip id="bus145" type="bus_bus" depart="530.80" departLane="best" departSpeed="max" from="-732211000" to="-207629917#2"/>
    <trip id="bus146" type="bus_bus" depart="534.46" departLane="best" from="-207629480#0" to="491327503#5"/>
    <trip id="bus147" type="bus_bus" depart="538.12" departLane="best" from="-400413273#1" to="949054680"/>
    <trip id="bus148" type="bus_bus" depart="541.79" departLane="best" from="233763130#2" to="401028224"/>
    <trip id="bus149" type="bus_bus" depart="545.45" departLane="best" from="-188589326#3" to="216984742#3"/>
    <trip id="bus150" type="bus_bus" depart="549.11" departLane="best" departSpeed="max" from="-400751431" to="491327503#7"/>
    <trip id="bus151" type="bus_bus" depart="552.77" departLane="best" from="233760097#7" to="400747895#2"/>
    <trip id="bus152" type="bus_bus" depart="556.43" departLane="best" from="233763130#2" to="-216984759#0"/>
    <trip id="bus154" type="bus_bus" depart="563.75" departLane="best" from="400527279#2" to="400747893#0"/>
    <trip id="bus155" type="bus_bus" depart="567.41" departLane="best" from="-216984720#4" to="399990514#1"/>
    <trip id="bus156" type="bus_bus" depart="571.07" departLane="best" from="-186412743#15" to="-233779979#1"/>
    <trip id="bus157" type="bus_bus" depart="574.73" departLane="best" from="233760092" to="-216982394#0"/>
    <trip id="bus158" type="bus_bus" depart="578.39" departLane="best" from="188589326#15" to="-216970157#1"/>
    <trip id="bus160" type="bus_bus" depart="585.71" departLane="best" from="932534547#0" to="207613391#0"/>
    <trip id="bus161" type="bus_bus" depart="589.37" departLane="best" from="491327503#14" to="207626479#17"/>
    <trip id="bus162" type="bus_bus" depart="593.04" departLane="best" from="911207327#0" to="-216965792#0"/>
    <trip id="bus163" type="bus_bus" depart="596.70" departLane="best" from="910776137#1" to="-216984755#3"/>
    <trip id="bus164" type="bus_bus" depart="600.36" departLane="best" from="-207626475#5" to="-949270610"/>
    <trip id="bus165" type="bus_bus" depart="604.02" departLane="best" from="216984716#7" to="-397936211#0"/>
    <trip id="bus166" type="bus_bus" depart="607.68" departLane="best" from="-491323087#3" to="207626479#1"/>
    <trip id="bus167" type="bus_bus" depart="611.34" departLane="best" from="-224390568" to="216984716#11"/>
    <trip id="bus168" type="bus_bus" depart="615.00" departLane="best" departSpeed="max" from="-1004514776" to="491327450"/>
    <trip id="bus169" type="bus_bus" depart="618.66" departLane="best" from="207613391#0" to="216984728"/>
    <trip id="bus170" type="bus_bus" depart="622.32" departLane="best" from="216984736#0" to="216980038"/>
    <trip id="bus171" type="bus_bus" depart="625.98" departLane="best" from="-487965667#11" to="-207613388#3"/>
    <trip id="bus172" type="bus_bus" depart="629.64" departLane="best" from="216970159#0" to="400413273#0"/>
    <trip id="bus173" type="bus_bus" depart="633.30" departLane="best" departSpeed="max" from="216982401" to="-233763138#0"/>
    <trip id="bus174" type="bus_bus" depart="636.96" departLane="best" from="-400409949#8" to="732210974#0"/>
    <trip id="bus176" type="bus_bus" depart="644.29" departLane="best" from="-207626987#5" to="-910697485"/>
    <trip id="bus177" type="bus_bus" depart="647.95" departLane="best" from="-491327503#4" to="216980714#1"/>
    <trip id="bus178" type="bus_bus" depart="651.61" departLane="best" departSpeed="max" from="474831620#0" to="207629479#2"/>
    <trip id="bus179" type="bus_bus" depart="655.27" departLane="best" from="-399990514#0" to="-207617087#14"/>
    <trip id="bus180" type="bus_bus" depart="658.93" departLane="best" departSpeed="max" from="-1004514776" to="-233692706#3"/>
    <trip id="bus181" type="bus_bus" depart="662.59" departLane="best" departSpeed="max" from="-949276762" to="207626479#16"/>
    <trip id="bus182" type="bus_bus" depart="666.25" departLane="best" from="216969139#4" to="186412743#15"/>
    <trip id="bus183" type="bus_bus" depart="669.91" departLane="best" from="186410875#11" to="-216980042#0"/>
    <trip id="bus184" type="bus_bus" depart="673.57" departLane="best" from="188546078#3" to="487965667#8"/>
    <trip id="bus185" type="bus_bus" depart="677.23" departLane="best" from="233760094#0" to="-216965788#1"/>
    <trip id="bus186" type="bus_bus" depart="680.89" departLane="best" from="-207617087#12" to="207607925#9"/>
    <trip id="bus187" type="bus_bus" depart="684.55" departLane="best" from="207632321#3" to="400527278#1"/>
    <trip id="bus188" type="bus_bus" depart="688.21" departLane="best" departSpeed="max" from="233779979#0" to="224390568"/>
    <trip id="bus189" type="bus_bus" depart="691.87" departLane="best" from="216970163" to="-216981398#0"/>
    <trip id="bus190" type="bus_bus" depart="695.54" departLane="best" from="-216980038" to="-188589326#12"/>
    <trip id="bus191" type="bus_bus" depart="699.20" departLane="best" departSpeed="max" from="-216984744#7" to="188546427#1"/>
    <trip id="bus192" type="bus_bus" depart="702.86" departLane="best" from="400237753" to="207613389"/>
    <trip id="bus193" type="bus_bus" depart="706.52" departLane="best" from="-216970164#1" to="216981398#0"/>
    <trip id="bus194" type="bus_bus" depart="710.18" departLane="best" departSpeed="max" from="188589333#0" to="-216984723#0"/>
    <trip id="bus195" type="bus_bus" depart="713.84" departLane="best" departSpeed="max" from="216970154#0" to="186412743#3"/>
    <trip id="bus197" type="bus_bus" depart="721.16" departLane="best" from="-216984753" to="400525822#1"/>
    <trip id="bus198" type="bus_bus" depart="724.82" departLane="best" from="186411801#9" to="-233779979#2"/>
    <trip id="bus199" type="bus_bus" depart="728.48" departLane="best" departSpeed="max" from="207628299#0" to="733129148"/>
    <trip id="bus200" type="bus_bus" depart="732.14" departLane="best" from="400809387#8" to="207628692#5"/>
    <trip id="bus201" type="bus_bus" depart="735.80" departLane="best" departSpeed="max" from="216982401" to="207607914#2"/>
    <trip id="bus202" type="bus_bus" depart="739.46" departLane="best" departSpeed="max" from="397936211#0" to="-207617087#14"/>
    <trip id="bus203" type="bus_bus" depart="743.12" departLane="best" from="401239540#4" to="216984746#4"/>
    <trip id="bus204" type="bus_bus" depart="746.79" departLane="best" from="188546083" to="-216984744#2"/>
    <trip id="bus205" type="bus_bus" depart="750.45" departLane="best" from="216984759#3" to="207609920#1"/>
    <trip id="bus206" type="bus_bus" depart="754.11" departLane="best" from="-207631121#2" to="-233692704#14"/>
    <trip id="bus207" type="bus_bus" depart="757.77" departLane="best" from="-233692706#21" to="399990514#0"/>
    <trip id="bus208" type="bus_bus" depart="761.43" departLane="best" from="216984736#14" to="216981396#0"/>
    <trip id="bus209" type="bus_bus" depart="765.09" departLane="best" from="216981395#4" to="-207613388#1"/>
    <trip id="bus210" type="bus_bus" depart="768.75" departLane="best" departSpeed="max" from="-732211000" to="207617086#0"/>
    <trip id="bus211" type="bus_bus" depart="772.41" departLane="best" from="911207327#1" to="216970813#2"/>
    <trip id="bus212" type="bus_bus" depart="776.07" departLane="best" from="918563261" to="-487965669#2"/>
    <trip id="bus213" type="bus_bus" depart="779.73" departLane="best" from="207626987#0" to="216981396#4"/>
    <trip id="bus214" type="bus_bus" depart="783.39" departLane="best" from="400409950#4" to="-233692706#17"/>
    <trip id="bus215" type="bus_bus" depart="787.05" departLane="best" from="-491323084#2" to="-186412743#4"/>
    <trip id="bus216" type="bus_bus" depart="790.71" departLane="best" from="401239540#3" to="233692704#13"/>
    <trip id="bus217" type="bus_bus" depart="794.37" departLane="best" from="400409949#4" to="910776136"/>
    <trip id="bus218" type="bus_bus" depart="798.04" departLane="best" from="-917725346" to="216984757"/>
    <trip id="bus219" type="bus_bus" depart="801.70" departLane="best" from="-216982406" to="-216980713"/>
    <trip id="bus220" type="bus_bus" depart="805.36" departLane="best" departSpeed="max" from="-972921371" to="-188589326#8"/>
    <trip id="bus221" type="bus_bus" depart="809.02" departLane="best" from="-400807655#2" to="216980718#0"/>
    <trip id="bus222" type="bus_bus" depart="812.68" departLane="best" from="732210983#2" to="-207632318#1"/>
    <trip id="bus223" type="bus_bus" depart="816.34" departLane="best" departSpeed="max" from="188508707" to="-207626989#6"/>
    <trip id="bus224" type="bus_bus" depart="820.00" departLane="best" from="207631119#3" to="-188589326#3"/>
    <trip id="bus225" type="bus_bus" depart="823.66" departLane="best" from="-491327503#7" to="207617385#5"/>
    <trip id="bus226" type="bus_bus" depart="827.32" departLane="best" from="188589326#9" to="216965792#2"/>
    <trip id="bus227" type="bus_bus" depart="830.98" departLane="best" from="-207628299#13" to="186412743#0"/>
    <trip id="bus228" type="bus_bus" depart="834.64" departLane="best" from="-207607925#12" to="-487965668#4"/>
    <trip id="bus229" type="bus_bus" depart="838.30" departLane="best" from="-216981398#4" to="400409952#1"/>
    <trip id="bus230" type="bus_bus" depart="841.96" departLane="best" from="-216984755#2" to="487965668#4"/>
    <trip id="bus231" type="bus_bus" depart="845.62" departLane="best" departSpeed="max" from="216984744#0" to="400237752"/>
    <trip id="bus232" type="bus_bus" depart="849.29" departLane="best" from="-188589322#5" to="207613391#16"/>
    <trip id="bus233" type="bus_bus" depart="852.95" departLane="best" departSpeed="max" from="996164515" to="-400809387#0"/>
    <trip id="bus234" type="bus_bus" depart="856.61" departLane="best" from="216969137#0" to="233760091#1"/>
    <trip id="bus235" type="bus_bus" depart="860.27" departLane="best" from="216969137#3" to="-233692704#15"/>
    <trip id="bus236" type="bus_bus" depart="863.93" departLane="best" from="732210983#2" to="-216970162#0"/>
    <trip id="bus237" type="bus_bus" depart="867.59" departLane="best" from="188589326#0" to="-207629917#0"/>
    <trip id="bus238" type="bus_bus" depart="871.25" departLane="best" from="207626987#2" to="216970816#3"/>
    <trip id="bus239" type="bus_bus" depart="874.91" departLane="best" from="207617385#4" to="-216980713"/>
    <trip id="bus240" type="bus_bus" depart="878.57" departLane="best" from="216981395#5" to="233692706#2"/>
    <trip id="bus241" type="bus_bus" depart="882.23" departLane="best" from="216984736#6" to="207626479#16"/>
    <trip id="bus242" type="bus_bus" depart="885.89" departLane="best" departSpeed="max" from="233779979#0" to="912245079#0"/>
    <trip id="bus243" type="bus_bus" depart="889.55" departLane="best" departSpeed="max" from="-400413272" to="216980714#1"/>
    <trip id="bus245" type="bus_bus" depart="896.87" departLane="best" departSpeed="max" from="216980713" to="-207631121#4"/>
    <trip id="bus246" type="bus_bus" depart="900.54" departLane="best" from="207617385#5" to="233750313#1"/>
    <trip id="bus247" type="bus_bus" depart="904.20" departLane="best" from="400237755#0" to="207628299#6"/>
    <trip id="bus248" type="bus_bus" depart="907.86" departLane="best" from="207626479#3" to="949340119#1"/>
    <trip id="bus249" type="bus_bus" depart="911.52" departLane="best" departSpeed="max" from="-949272579#1" to="-487965665#0"/>
    <trip id="bus250" type="bus_bus" depart="915.18" departLane="best" departSpeed="max" from="197089668#0" to="-400747894#3"/>
    <trip id="bus252" type="bus_bus" depart="922.50" departLane="best" from="216981395#6" to="-949272579#0"/>
    <trip id="bus253" type="bus_bus" depart="926.16" departLane="best" from="-216984722#0" to="912245079#1"/>
    <trip id="bus254" type="bus_bus" depart="929.82" departLane="best" departSpeed="max" from="-972921371" to="-216984736#6"/>
    <trip id="bus255" type="bus_bus" depart="933.48" departLane="best" from="-233692706#14" to="400527277#0"/>
    <trip id="bus256" type="bus_bus" depart="937.14" departLane="best" from="397936211#1" to="-207617087#22"/>
    <trip id="bus257" type="bus_bus" depart="940.80" departLane="best" from="400807656#0" to="-216984723#0"/>
    <trip id="bus258" type="bus_bus" depart="944.46" departLane="best" from="188508003" to="207628692#0"/>
    <trip id="bus259" type="bus_bus" depart="948.12" departLane="best" from="400409941" to="-216969130#2"/>
    <trip id="bus260" type="bus_bus" depart="951.79" departLane="best" from="-216981398#5" to="233763134#3"/>
    <trip id="bus261" type="bus_bus" depart="955.45" departLane="best" departSpeed="max" from="-400807657#2" to="400809387#7"/>
    <trip id="bus262" type="bus_bus" depart="959.11" departLane="best" from="216981392#2" to="-233692704#18"/>
    <trip id="bus263" type="bus_bus" depart="962.77" departLane="best" from="-186412743#3" to="732211003"/>
    <trip id="bus264" type="bus_bus" depart="966.43" departLane="best" from="-207617087#14" to="216984730"/>
    <trip id="bus265" type="bus_bus" depart="970.09" departLane="best" from="188589326#16" to="-233692704#2"/>