<?xml version="1.0" encoding="UTF-8"?>

<!-- generated on 2024-04-23 19:52:27.162263 by osmWebWizard.py v1_19_0+0000-baa66a0f364
<configuration>
    <net-file value="F:\SUMO\OptimalEmission-SUMO-ReinforcementLearning\2024-04-23-19-52-17\osm.net.xml.gz"/>
    <output-trip-file value="F:\SUMO\OptimalEmission-SUMO-ReinforcementLearning\2024-04-23-19-52-17\osm.motorcycle.trips.xml"/>
    <route-file value="F:\SUMO\OptimalEmission-SUMO-ReinforcementLearning\2024-04-23-19-52-17\osm.motorcycle.rou.xml"/>
    <prefix value="motorcycle"/>
    <trip-attributes value="departLane=&quot;best&quot;"/>
    <fringe-start-attributes value="departSpeed=&quot;max&quot;"/>
    <vehicle-class value="motorcycle"/>
    <fringe-factor value="2"/>
    <vclass value="motorcycle"/>
    <via-edge-types value="highway.motorway,highway.motorway_link,highway.trunk_link,highway.primary_link,highway.secondary_link,highway.tertiary_link"/>
    <max-distance value="1200.0"/>
    <remove-loops value="True"/>
    <validate value="True"/>
    <insertion-density value="4.0"/>
</configuration>
-->

<!-- generated on 2024-04-23 19:52:26 by Eclipse SUMO duarouter Version 1.19.0
<configuration xmlns:xsi="http://www.w3.org/2001/XMLSchema-instance" xsi:noNamespaceSchemaLocation="http://sumo.dlr.de/xsd/duarouterConfiguration.xsd">

    <input>
        <net-file value="F:\SUMO\OptimalEmission-SUMO-ReinforcementLearning\2024-04-23-19-52-17\osm.net.xml.gz"/>
        <route-files value="F:\SUMO\OptimalEmission-SUMO-ReinforcementLearning\2024-04-23-19-52-17\osm.motorcycle.trips.xml"/>
    </input>

    <output>
        <output-file value="F:\SUMO\OptimalEmission-SUMO-ReinforcementLearning\2024-04-23-19-52-17\osm.motorcycle.trips.xml.tmp"/>
        <alternatives-output value="NUL"/>
        <write-trips value="true"/>
    </output>

    <processing>
        <remove-loops value="true"/>
    </processing>

    <time>
        <begin value="0.0"/>
        <end value="3600.0"/>
    </time>

    <report>
        <no-warnings value="true"/>
        <ignore-errors value="true"/>
        <no-step-log value="true"/>
    </report>

</configuration>
-->

<routes xmlns:xsi="http://www.w3.org/2001/XMLSchema-instance" xsi:noNamespaceSchemaLocation="http://sumo.dlr.de/xsd/routes_file.xsd">
    <vType id="motorcycle_motorcycle" vClass="motorcycle"/>
    <trip id="motorcycle0" type="motorcycle_motorcycle" depart="0.00" departLane="best" from="216982394#1" to="-207626987#7"/>
    <trip id="motorcycle1" type="motorcycle_motorcycle" depart="3.66" departLane="best" from="233763129" to="186412743#3"/>
    <trip id="motorcycle2" type="motorcycle_motorcycle" depart="7.32" departLane="best" from="-400807657#0" to="-207629479#4"/>
    <trip id="motorcycle4" type="motorcycle_motorcycle" depart="14.64" departLane="best" from="207617087#8" to="-207617385#12"/>
    <trip id="motorcycle5" type="motorcycle_motorcycle" depart="18.30" departLane="best" from="207613391#14" to="918563260"/>
    <trip id="motorcycle6" type="motorcycle_motorcycle" depart="21.96" departLane="best" from="-487965672#4" to="207617087#9"/>
    <trip id="motorcycle7" type="motorcycle_motorcycle" depart="25.62" departLane="best" from="400412771" to="-207626479#13"/>
    <trip id="motorcycle8" type="motorcycle_motorcycle" depart="29.29" departLane="best" from="-207613391#5" to="216982405#0"/>
    <trip id="motorcycle9" type="motorcycle_motorcycle" depart="32.95" departLane="best" departSpeed="max" from="-233692704#19" to="491327503#2"/>
    <trip id="motorcycle10" type="motorcycle_motorcycle" depart="36.61" departLane="best" from="207629917#3" to="-487965671#4"/>
    <trip id="motorcycle11" type="motorcycle_motorcycle" depart="40.27" departLane="best" from="216984716#5" to="-216965789#3"/>
    <trip id="motorcycle12" type="motorcycle_motorcycle" depart="43.93" departLane="best" from="-216984720#3" to="-188589337#1"/>
    <trip id="motorcycle13" type="motorcycle_motorcycle" depart="47.59" departLane="best" from="-400409952#0" to="400237755#1"/>
    <trip id="motorcycle14" type="motorcycle_motorcycle" depart="51.25" departLane="best" from="400747895#1" to="-399990508#1"/>
    <trip id="motorcycle15" type="motorcycle_motorcycle" depart="54.91" departLane="best" departSpeed="max" from="216970154#0" to="-491325723"/>
    <trip id="motorcycle16" type="motorcycle_motorcycle" depart="58.57" departLane="best" from="233692704#15" to="-216984736#12"/>
    <trip id="motorcycle17" type="motorcycle_motorcycle" depart="62.23" departLane="best" from="207626987#10" to="474831620#5"/>
    <trip id="motorcycle18" type="motorcycle_motorcycle" depart="65.89" departLane="best" from="949948460#1" to="207607925#7"/>
    <trip id="motorcycle19" type="motorcycle_motorcycle" depart="69.55" departLane="best" from="-207617087#4" to="-207607923#9"/>
    <trip id="motorcycle20" type="motorcycle_motorcycle" depart="73.21" departLane="best" from="-207626475#4" to="207631121#0"/>
    <trip id="motorcycle21" type="motorcycle_motorcycle" depart="76.87" departLane="best" from="233760089" to="-911207327#5"/>
    <trip id="motorcycle22" type="motorcycle_motorcycle" depart="80.54" departLane="best" from="186412743#11" to="-733131403#0"/>
    <trip id="motorcycle23" type="motorcycle_motorcycle" depart="84.20" departLane="best" from="-207628690#1" to="-207628692#2"/>
    <trip id="motorcycle24" type="motorcycle_motorcycle" depart="87.86" departLane="best" from="216984759#4" to="-207613391#9"/>
    <trip id="motorcycle25" type="motorcycle_motorcycle" depart="91.52" departLane="best" from="-233692706#18" to="207613388#7"/>
    <trip id="motorcycle26" type="motorcycle_motorcycle" depart="95.18" departLane="best" from="-207617087#14" to="188589326#9"/>
    <trip id="motorcycle27" type="motorcycle_motorcycle" depart="98.84" departLane="best" from="-207613388#20" to="-233692704#15"/>
    <trip id="motorcycle28" type="motorcycle_motorcycle" depart="102.50" departLane="best" from="233692704#10" to="-207626987#7"/>
    <trip id="motorcycle29" type="motorcycle_motorcycle" depart="106.16" departLane="best" from="188589320#2" to="207617087#5"/>
    <trip id="motorcycle30" type="motorcycle_motorcycle" depart="109.82" departLane="best" from="233692704#16" to="400751431"/>
    <trip id="motorcycle31" type="motorcycle_motorcycle" depart="113.48" departLane="best" from="207613391#5" to="-216984736#0"/>
    <trip id="motorcycle32" type="motorcycle_motorcycle" depart="117.14" departLane="best" from="949340126#1" to="216969137#5"/>
    <trip id="motorcycle33" type="motorcycle_motorcycle" depart="120.80" departLane="best" from="-400807656#0" to="-207626987#5"/>
    <trip id="motorcycle34" type="motorcycle_motorcycle" depart="124.46" departLane="best" from="-207613388#5" to="207632317#0"/>
    <trip id="motorcycle35" type="motorcycle_motorcycle" depart="128.12" departLane="best" from="-216984720#3" to="-487965667#5"/>
    <trip id="motorcycle36" type="motorcycle_motorcycle" depart="131.79" departLane="best" from="400412772#0" to="233760091#0"/>
    <trip id="motorcycle37" type="motorcycle_motorcycle" depart="135.45" departLane="best" from="-207617385#1" to="949340122#1"/>
    <trip id="motorcycle39" type="motorcycle_motorcycle" depart="142.77" departLane="best" from="400412771" to="-216984736#16"/>
    <trip id="motorcycle40" type="motorcycle_motorcycle" depart="146.43" departLane="best" from="-216984744#4" to="491323084#5"/>
    <trip id="motorcycle41" type="motorcycle_motorcycle" depart="150.09" departLane="best" from="911207327#1" to="491323087#2"/>
    <trip id="motorcycle42" type="motorcycle_motorcycle" depart="153.75" departLane="best" from="-207609918#8" to="207626987#0"/>
    <trip id="motorcycle43" type="motorcycle_motorcycle" depart="157.41" departLane="best" from="-216984729" to="-207626479#2"/>
    <trip id="motorcycle44" type="motorcycle_motorcycle" depart="161.07" departLane="best" from="400809387#6" to="-216984736#11"/>
    <trip id="motorcycle45" type="motorcycle_motorcycle" depart="164.73" departLane="best" from="207626991" to="207629480#3"/>
    <trip id="motorcycle46" type="motorcycle_motorcycle" depart="168.39" departLane="best" from="-917725347" to="-207626479#8"/>
    <trip id="motorcycle47" type="motorcycle_motorcycle" depart="172.05" departLane="best" from="207613388#1" to="-491327503#12"/>
    <trip id="motorcycle48" type="motorcycle_motorcycle" depart="175.71" departLane="best" from="-216970814" to="216984716#5"/>
    <trip id="motorcycle49" type="motorcycle_motorcycle" depart="179.37" departLane="best" from="-207613388#8" to="186412743#15"/>
    <trip id="motorcycle50" type="motorcycle_motorcycle" depart="183.04" departLane="best" from="949948460#2" to="949948460#2"/>
    <trip id="motorcycle51" type="motorcycle_motorcycle" depart="186.70" departLane="best" from="-233692704#16" to="491327503#0"/>
    <trip id="motorcycle52" type="motorcycle_motorcycle" depart="190.36" departLane="best" from="-400807655#1" to="400807657#0"/>
    <trip id="motorcycle53" type="motorcycle_motorcycle" depart="194.02" departLane="best" from="-487965668#1" to="-207629480#2"/>
    <trip id="motorcycle54" type="motorcycle_motorcycle" depart="197.68" departLane="best" from="399990515#0" to="216981398#4"/>
    <trip id="motorcycle55" type="motorcycle_motorcycle" depart="201.34" departLane="best" from="-207626989#3" to="207626479#1"/>
    <trip id="motorcycle56" type="motorcycle_motorcycle" depart="205.00" departLane="best" departSpeed="max" from="-207626474#1" to="207617384#1"/>
    <trip id="motorcycle57" type="motorcycle_motorcycle" depart="208.66" departLane="best" from="233692706#1" to="207628300#5"/>
    <trip id="motorcycle58" type="motorcycle_motorcycle" depart="212.32" departLane="best" from="207632321#1" to="-216984759#0"/>
    <trip id="motorcycle59" type="motorcycle_motorcycle" depart="215.98" departLane="best" from="-186412743#10" to="233692706#16"/>
    <trip id="motorcycle60" type="motorcycle_motorcycle" depart="219.64" departLane="best" from="216984736#14" to="-207617087#8"/>
    <trip id="motorcycle61" type="motorcycle_motorcycle" depart="223.30" departLane="best" from="-207613391#11" to="400809387#12"/>
    <trip id="motorcycle62" type="motorcycle_motorcycle" depart="226.96" departLane="best" from="474831620#6" to="207617087#17"/>
    <trip id="motorcycle63" type="motorcycle_motorcycle" depart="230.62" departLane="best" from="-207628300#8" to="-207626987#5"/>
    <trip id="motorcycle64" type="motorcycle_motorcycle" depart="234.29" departLane="best" from="233760096#1" to="400527278#0"/>
    <trip id="motorcycle65" type="motorcycle_motorcycle" depart="237.95" departLane="best" from="233692706#20" to="-400809387#3"/>
    <trip id="motorcycle66" type="motorcycle_motorcycle" depart="241.61" departLane="best" from="732210983#5" to="207629917#0"/>
    <trip id="motorcycle67" type="motorcycle_motorcycle" depart="245.27" departLane="best" from="233763130#1" to="-400809387#1"/>
    <trip id="motorcycle68" type="motorcycle_motorcycle" depart="248.93" departLane="best" from="-188589326#3" to="216984736#5"/>
    <trip id="motorcycle69" type="motorcycle_motorcycle" depart="252.59" departLane="best" from="233750313#1" to="-207626475#6"/>
    <trip id="motorcycle70" type="motorcycle_motorcycle" depart="256.25" departLane="best" from="-400527279#4" to="400525822#3"/>
    <trip id="motorcycle71" type="motorcycle_motorcycle" depart="259.91" departLane="best" from="-216982399#1" to="-397936205#5"/>
    <trip id="motorcycle72" type="motorcycle_motorcycle" depart="263.57" departLane="best" from="911091199#4" to="216982396"/>
    <trip id="motorcycle73" type="motorcycle_motorcycle" depart="267.23" departLane="best" from="-400747893#2" to="-400527279#2"/>
    <trip id="motorcycle74" type="motorcycle_motorcycle" depart="270.89" departLane="best" from="-491327503#11" to="-207626479#1"/>
    <trip id="motorcycle75" type="motorcycle_motorcycle" depart="274.55" departLane="best" from="207626475#1" to="-949948460#2"/>
    <trip id="motorcycle76" type="motorcycle_motorcycle" depart="278.21" departLane="best" from="207628300#7" to="207609918#1"/>
    <trip id="motorcycle77" type="motorcycle_motorcycle" depart="281.87" departLane="best" from="-491323084#7" to="207626479#12"/>
    <trip id="motorcycle78" type="motorcycle_motorcycle" depart="285.54" departLane="best" from="-216984753" to="216982405#0"/>
    <trip id="motorcycle79" type="motorcycle_motorcycle" depart="289.20" departLane="best" departSpeed="max" from="-1004514777" to="-491323087#0"/>
    <trip id="motorcycle80" type="motorcycle_motorcycle" depart="292.86" departLane="best" from="207613391#3" to="-216984720#2"/>
    <trip id="motorcycle81" type="motorcycle_motorcycle" depart="296.52" departLane="best" from="-487965667#11" to="-207613388#3"/>
    <trip id="motorcycle82" type="motorcycle_motorcycle" depart="300.18" departLane="best" from="-216970160#3" to="-400527278#2"/>
    <trip id="motorcycle83" type="motorcycle_motorcycle" depart="303.84" departLane="best" from="-400409949#6" to="400409950#1"/>
    <trip id="motorcycle84" type="motorcycle_motorcycle" depart="307.50" departLane="best" from="207626987#11" to="-911207327#1"/>
    <trip id="motorcycle85" type="motorcycle_motorcycle" depart="311.16" departLane="best" from="474831620#3" to="207629479#1"/>
    <trip id="motorcycle86" type="motorcycle_motorcycle" depart="314.82" departLane="best" from="397936205#6" to="-207617087#21"/>
    <trip id="motorcycle87" type="motorcycle_motorcycle" depart="318.48" departLane="best" departSpeed="max" from="-1004514776" to="-233692706#5"/>
    <trip id="motorcycle88" type="motorcycle_motorcycle" depart="322.14" departLane="best" from="186410875#7" to="-216980042#1"/>
    <trip id="motorcycle89" type="motorcycle_motorcycle" depart="325.80" departLane="best" from="188589316#0" to="487965665#3"/>
    <trip id="motorcycle90" type="motorcycle_motorcycle" depart="329.46" departLane="best" from="-207617087#12" to="207609918#8"/>
    <trip id="motorcycle91" type="motorcycle_motorcycle" depart="333.12" departLane="best" from="216970813#2" to="216981398#3"/>
    <trip id="motorcycle92" type="motorcycle_motorcycle" depart="336.79" departLane="best" from="-216984739#1" to="188589322#1"/>
    <trip id="motorcycle93" type="motorcycle_motorcycle" depart="340.45" departLane="best" from="400237755#0" to="207613389"/>
    <trip id="motorcycle94" type="motorcycle_motorcycle" depart="344.11" departLane="best" from="-911207327#0" to="207631121#5"/>
    <trip id="motorcycle95" type="motorcycle_motorcycle" depart="347.77" departLane="best" from="216970160#0" to="216981395#4"/>
    <trip id="motorcycle96" type="motorcycle_motorcycle" depart="351.43" departLane="best" from="-188659818#1" to="-216984734"/>
    <trip id="motorcycle97" type="motorcycle_motorcycle" depart="355.09" departLane="best" from="216984744#3" to="233692706#13"/>
    <trip id="motorcycle98" type="motorcycle_motorcycle" depart="358.75" departLane="best" from="-207626474#0" to="-918563261"/>
    <trip id="motorcycle99" type="motorcycle_motorcycle" depart="362.41" departLane="best" from="-207632321#2" to="-910791462#1"/>
    <trip id="motorcycle100" type="motorcycle_motorcycle" depart="366.07" departLane="best" from="207609918#9" to="-207607925#2"/>
    <trip id="motorcycle101" type="motorcycle_motorcycle" depart="369.73" departLane="best" from="216970162#4" to="949340121#2"/>
    <trip id="motorcycle102" type="motorcycle_motorcycle" depart="373.39" departLane="best" departSpeed="max" from="207628299#0" to="732211000"/>
    <trip id="motorcycle103" type="motorcycle_motorcycle" depart="377.05" departLane="best" from="401239540#5" to="216984744#4"/>
    <trip id="motorcycle104" type="motorcycle_motorcycle" depart="380.71" departLane="best" from="233692704#10" to="-207613388#0"/>
    <trip id="motorcycle105" type="motorcycle_motorcycle" depart="384.37" departLane="best" departSpeed="max" from="207631120" to="-233692704#2"/>
    <trip id="motorcycle106" type="motorcycle_motorcycle" depart="388.04" departLane="best" from="-207613391#16" to="-233692706#3"/>
    <trip id="motorcycle107" type="motorcycle_motorcycle" depart="391.70" departLane="best" from="207613391#7" to="207628299#14"/>
    <trip id="motorcycle108" type="motorcycle_motorcycle" depart="395.36" departLane="best" departSpeed="max" from="-732211000" to="207617087#10"/>
    <trip id="motorcycle109" type="motorcycle_motorcycle" depart="399.02" departLane="best" from="-911207327#2" to="-216970164#4"/>
    <trip id="motorcycle110" type="motorcycle_motorcycle" depart="402.68" departLane="best" from="918563261" to="-487965667#4"/>
    <trip id="motorcycle111" type="motorcycle_motorcycle" depart="406.34" departLane="best" from="-491323084#1" to="186412743#2"/>
    <trip id="motorcycle112" type="motorcycle_motorcycle" depart="410.00" departLane="best" from="-401239540#2" to="-216984759#1"/>
    <trip id="motorcycle113" type="motorcycle_motorcycle" depart="413.66" departLane="best" from="207617087#18" to="207628300#2"/>
    <trip id="motorcycle114" type="motorcycle_motorcycle" depart="417.32" departLane="best" from="400807654#1" to="216980714#0"/>
    <trip id="motorcycle115" type="motorcycle_motorcycle" depart="420.98" departLane="best" from="-207626989#6" to="186412743#6"/>
    <trip id="motorcycle116" type="motorcycle_motorcycle" depart="424.64" departLane="best" from="216981388" to="-400525822#0"/>
    <trip id="motorcycle117" type="motorcycle_motorcycle" depart="428.30" departLane="best" from="216984759#1" to="487965671#4"/>
    <trip id="motorcycle118" type="motorcycle_motorcycle" depart="431.96" departLane="best" from="216969137#3" to="233750313#4"/>
    <trip id="motorcycle119" type="motorcycle_motorcycle" depart="435.62" departLane="best" from="-207631119#4" to="-207628688#0"/>
    <trip id="motorcycle120" type="motorcycle_motorcycle" depart="439.29" departLane="best" from="-216984742#1" to="-207626477"/>
    <trip id="motorcycle121" type="motorcycle_motorcycle" depart="442.95" departLane="best" from="207626475#0" to="-188589326#2"/>
    <trip id="motorcycle122" type="motorcycle_motorcycle" depart="446.61" departLane="best" from="216982399#2" to="-207613391#13"/>
    <trip id="motorcycle123" type="motorcycle_motorcycle" depart="450.27" departLane="best" from="-207617385#2" to="-233692706#19"/>
    <trip id="motorcycle124" type="motorcycle_motorcycle" depart="453.93" departLane="best" from="207607923#8" to="400807655#0"/>
    <trip id="motorcycle125" type="motorcycle_motorcycle" depart="457.59" departLane="best" from="-207617385#8" to="911091199#2"/>
    <trip id="motorcycle127" type="motorcycle_motorcycle" depart="464.91" departLane="best" from="216984726" to="911207327#4"/>
    <trip id="motorcycle128" type="motorcycle_motorcycle" depart="468.57" departLane="best" from="207613391#2" to="-188589326#3"/>
    <trip id="motorcycle129" type="motorcycle_motorcycle" depart="472.23" departLane="best" from="186410875#0" to="-216984736#11"/>
    <trip id="motorcycle130" type="motorcycle_motorcycle" depart="475.89" departLane="best" from="-487965672#5" to="188589326#9"/>
    <trip id="motorcycle131" type="motorcycle_motorcycle" depart="479.55" departLane="best" from="400409945" to="-216965790#2"/>
    <trip id="motorcycle132" type="motorcycle_motorcycle" depart="483.21" departLane="best" from="400807657#0" to="400807657#2"/>
    <trip id="motorcycle133" type="motorcycle_motorcycle" depart="486.87" departLane="best" from="-207617087#14" to="216984720#3"/>
    <trip id="motorcycle134" type="motorcycle_motorcycle" depart="490.54" departLane="best" departSpeed="max" from="188589333#0" to="-233692704#1"/>
    <trip id="motorcycle135" type="motorcycle_motorcycle" depart="494.20" departLane="best" from="216980718#5" to="216969130#3"/>
    <trip id="motorcycle136" type="motorcycle_motorcycle" depart="497.86" departLane="best" from="207626479#5" to="-188589320#0"/>
    <trip id="motorcycle137" type="motorcycle_motorcycle" depart="501.52" departLane="best" from="207613388#6" to="-918563261"/>
    <trip id="motorcycle138" type="motorcycle_motorcycle" depart="505.18" departLane="best" from="-216969130#3" to="-216980712#1"/>
    <trip id="motorcycle139" type="motorcycle_motorcycle" depart="508.84" departLane="best" from="917725348" to="207613388#16"/>
    <trip id="motorcycle140" type="motorcycle_motorcycle" depart="512.50" departLane="best" from="491327503#15" to="188589322#6"/>
    <trip id="motorcycle141" type="motorcycle_motorcycle" depart="516.16" departLane="best" from="-207613391#1" to="-207631121#4"/>
    <trip id="motorcycle142" type="motorcycle_motorcycle" depart="519.82" departLane="best" from="207617385#5" to="305927218#0"/>
    <trip id="motorcycle143" type="motorcycle_motorcycle" depart="523.48" departLane="best" from="224390568" to="-207628300#8"/>
    <trip id="motorcycle144" type="motorcycle_motorcycle" depart="527.14" departLane="best" from="949340121#2" to="-305927218#3"/>
    <trip id="motorcycle145" type="motorcycle_motorcycle" depart="530.80" departLane="best" from="207629917#2" to="207628690#3"/>
    <trip id="motorcycle146" type="motorcycle_motorcycle" depart="534.46" departLane="best" from="-216980042#2" to="-216980036#1"/>
    <trip id="motorcycle147" type="motorcycle_motorcycle" depart="538.12" departLane="best" from="186412743#0" to="186411801#2"/>
    <trip id="motorcycle148" type="motorcycle_motorcycle" depart="541.79" departLane="best" from="-216984720#8" to="216982399#1"/>
    <trip id="motorcycle149" type="motorcycle_motorcycle" depart="545.45" departLane="best" from="207631119#1" to="397936205#3"/>
    <trip id="motorcycle150" type="motorcycle_motorcycle" depart="549.11" departLane="best" from="233763130#1" to="-207626987#10"/>
    <trip id="motorcycle151" type="motorcycle_motorcycle" depart="552.77" departLane="best" from="216980718#1" to="216981396#3"/>
    <trip id="motorcycle152" type="motorcycle_motorcycle" depart="556.43" departLane="best" from="491327503#5" to="207607923#11"/>
    <trip id="motorcycle153" type="motorcycle_motorcycle" depart="560.09" departLane="best" from="732210983#2" to="996164518"/>
    <trip id="motorcycle154" type="motorcycle_motorcycle" depart="563.75" departLane="best" from="188546427#1" to="216969139#2"/>
    <trip id="motorcycle155" type="motorcycle_motorcycle" depart="567.41" departLane="best" from="207626987#12" to="-207632321#3"/>
    <trip id="motorcycle156" type="motorcycle_motorcycle" depart="571.07" departLane="best" from="-400809387#8" to="400747893#0"/>
    <trip id="motorcycle157" type="motorcycle_motorcycle" depart="574.73" departLane="best" from="-400747894#1" to="216981394#4"/>
    <trip id="motorcycle158" type="motorcycle_motorcycle" depart="578.39" departLane="best" from="949340119#1" to="216970158"/>
    <trip id="motorcycle159" type="motorcycle_motorcycle" depart="582.05" departLane="best" from="-207617087#10" to="-735022362"/>
    <trip id="motorcycle160" type="motorcycle_motorcycle" depart="585.71" departLane="best" from="207617087#3" to="-491323087#4"/>
    <trip id="motorcycle161" type="motorcycle_motorcycle" depart="589.37" departLane="best" departSpeed="max" from="-207626479#18" to="918563260"/>
    <trip id="motorcycle162" type="motorcycle_motorcycle" depart="593.04" departLane="best" from="-207629479#5" to="-207617087#7"/>
    <trip id="motorcycle163" type="motorcycle_motorcycle" depart="596.70" departLane="best" from="-216982402" to="207607925#5"/>
    <trip id="motorcycle164" type="motorcycle_motorcycle" depart="600.36" departLane="best" from="932534544#0" to="-216984729"/>
    <trip id="motorcycle165" type="motorcycle_motorcycle" depart="604.02" departLane="best" from="-207617087#7" to="-487965672#5"/>
    <trip id="motorcycle166" type="motorcycle_motorcycle" depart="607.68" departLane="best" from="400807654#0" to="-400527279#1"/>
    <trip id="motorcycle167" type="motorcycle_motorcycle" depart="611.34" departLane="best" from="233692706#18" to="233760097#1"/>
    <trip id="motorcycle168" type="motorcycle_motorcycle" depart="615.00" departLane="best" from="-911207327#1" to="491327503#11"/>
    <trip id="motorcycle169" type="motorcycle_motorcycle" depart="618.66" departLane="best" departSpeed="max" from="188589337#0" to="207628690#1"/>
    <trip id="motorcycle170" type="motorcycle_motorcycle" depart="622.32" departLane="best" from="207613391#3" to="400807657#1"/>
    <trip id="motorcycle171" type="motorcycle_motorcycle" depart="625.98" departLane="best" from="207617087#9" to="207617087#12"/>
    <trip id="motorcycle172" type="motorcycle_motorcycle" depart="629.64" departLane="best" from="-216969137#4" to="216981395#6"/>
    <trip id="motorcycle173" type="motorcycle_motorcycle" depart="633.30" departLane="best" from="233692706#11" to="-207607923#12"/>
    <trip id="motorcycle174" type="motorcycle_motorcycle" depart="636.96" departLane="best" from="216984736#6" to="-216982396"/>
    <trip id="motorcycle175" type="motorcycle_motorcycle" depart="640.62" departLane="best" from="233763130#3" to="-491323084#1"/>
    <trip id="motorcycle176" type="motorcycle_motorcycle" depart="644.29" departLane="best" from="932534547#1" to="188659819#4"/>
    <trip id="motorcycle177" type="motorcycle_motorcycle" depart="647.95" departLane="best" from="-207613388#16" to="186412743#13"/>
    <trip id="motorcycle178" type="motorcycle_motorcycle" depart="651.61" departLane="best" from="188546426" to="912245078#2"/>
    <trip id="motorcycle179" type="motorcycle_motorcycle" depart="655.27" departLane="best" from="216969137#2" to="400409952#1"/>
    <trip id="motorcycle180" type="motorcycle_motorcycle" depart="658.93" departLane="best" from="-400409949#2" to="400525823"/>
    <trip id="motorcycle181" type="motorcycle_motorcycle" depart="662.59" departLane="best" from="-207613388#2" to="207632317#0"/>
    <trip id="motorcycle182" type="motorcycle_motorcycle" depart="666.25" departLane="best" from="-207607923#8" to="233760098#0"/>
    <trip id="motorcycle183" type="motorcycle_motorcycle" depart="669.91" departLane="best" from="-207628300#3" to="207613389"/>
    <trip id="motorcycle184" type="motorcycle_motorcycle" depart="673.57" departLane="best" from="207626475#0" to="233760097#2"/>
    <trip id="motorcycle185" type="motorcycle_motorcycle" depart="677.23" departLane="best" from="207631121#3" to="-207613391#4"/>
    <trip id="motorcycle186" type="motorcycle_motorcycle" depart="680.89" departLane="best" from="207628299#8" to="-186412743#5"/>
    <trip id="motorcycle187" type="motorcycle_motorcycle" depart="684.55" departLane="best" from="-186412743#5" to="-233763130#2"/>
    <trip id="motorcycle188" type="motorcycle_motorcycle" depart="688.21" departLane="best" from="207629479#4" to="186410875#16"/>
    <trip id="motorcycle189" type="motorcycle_motorcycle" depart="691.87" departLane="best" from="207626476#3" to="207626479#0"/>
    <trip id="motorcycle190" type="motorcycle_motorcycle" depart="695.54" departLane="best" from="949340123" to="233763130#1"/>
    <trip id="motorcycle191" type="motorcycle_motorcycle" depart="699.20" departLane="best" from="233692706#13" to="207626474#1"/>
    <trip id="motorcycle192" type="motorcycle_motorcycle" depart="702.86" departLane="best" from="-207607925#12" to="-207628300#8"/>
    <trip id="motorcycle193" type="motorcycle_motorcycle" depart="706.52" departLane="best" from="-188659819#3" to="-487965667#3"/>
    <trip id="motorcycle194" type="motorcycle_motorcycle" depart="710.18" departLane="best" from="-233760098#0" to="233760103"/>
    <trip id="motorcycle195" type="motorcycle_motorcycle" depart="713.84" departLane="best" from="-216970157#4" to="400237749#1"/>
    <trip id="motorcycle196" type="motorcycle_motorcycle" depart="717.50" departLane="best" from="207631121#2" to="487965667#11"/>
    <trip id="motorcycle197" type="motorcycle_motorcycle" depart="721.16" departLane="best" from="216969130#1" to="-397936205#5"/>
    <trip id="motorcycle198" type="motorcycle_motorcycle" depart="724.82" departLane="best" from="186410875#3" to="207626479#18"/>
    <trip id="motorcycle199" type="motorcycle_motorcycle" depart="728.48" departLane="best" from="305927218#0" to="216984746#2"/>
    <trip id="motorcycle200" type="motorcycle_motorcycle" depart="732.14" departLane="best" from="207632321#2" to="-207626989#3"/>
    <trip id="motorcycle201" type="motorcycle_motorcycle" depart="735.80" departLane="best" from="207613391#5" to="917725348"/>
    <trip id="motorcycle202" type="motorcycle_motorcycle" depart="739.46" departLane="best" from="233760106" to="216984746#0"/>
    <trip id="motorcycle203" type="motorcycle_motorcycle" depart="743.12" departLane="best" from="-400807656#1" to="-207626479#1"/>
    <trip id="motorcycle204" type="motorcycle_motorcycle" depart="746.79" departLane="best" from="911091199#3" to="400527277#0"/>
    <trip id="motorcycle205" type="motorcycle_motorcycle" depart="750.45" departLane="best" from="216984716#6" to="949030890"/>
    <trip id="motorcycle206" type="motorcycle_motorcycle" depart="754.11" departLane="best" from="911121880" to="-233763130#2"/>
    <trip id="motorcycle207" type="motorcycle_motorcycle" depart="757.77" departLane="best" from="487965667#4" to="233760097#10"/>
    <trip id="motorcycle208" type="motorcycle_motorcycle" depart="761.43" departLane="best" from="207626475#1" to="216982405#2"/>
    <trip id="motorcycle209" type="motorcycle_motorcycle" depart="765.09" departLane="best" from="188589326#3" to="-400809387#3"/>
    <trip id="motorcycle210" type="motorcycle_motorcycle" depart="768.75" departLane="best" from="216982397" to="-207613388#1"/>
    <trip id="motorcycle211" type="motorcycle_motorcycle" depart="772.41" departLane="best" from="397936205#2" to="-487965668#4"/>
    <trip id="motorcycle212" type="motorcycle_motorcycle" depart="776.07" departLane="best" from="-207617385#11" to="401028224"/>
    <trip id="motorcycle213" type="motorcycle_motorcycle" depart="779.73" departLane="best" from="-207626989#6" to="186411801#8"/>