<?xml version="1.0" encoding="UTF-8"?>

<!-- generated on 2024-04-23 19:52:30.891690 by osmWebWizard.py v1_19_0+0000-baa66a0f364
<configuration>
    <net-file value="F:\SUMO\OptimalEmission-SUMO-ReinforcementLearning\2024-04-23-19-52-17\osm.net.xml.gz"/>
    <output-trip-file value="F:\SUMO\OptimalEmission-SUMO-ReinforcementLearning\2024-04-23-19-52-17\osm.passenger.trips.xml"/>
    <route-file value="F:\SUMO\OptimalEmission-SUMO-ReinforcementLearning\2024-04-23-19-52-17\osm.passenger.rou.xml"/>
    <prefix value="veh"/>
    <trip-attributes value="departLane=&quot;best&quot;"/>
    <fringe-start-attributes value="departSpeed=&quot;max&quot;"/>
    <vehicle-class value="passenger"/>
    <lanes value="True"/>
    <fringe-factor value="5"/>
    <allow-fringe.min-length value="1000.0"/>
    <via-edge-types value="highway.motorway,highway.motorway_link,highway.trunk_link,highway.primary_link,highway.secondary_link,highway.tertiary_link"/>
    <min-distance value="300.0"/>
    <min-distance.fringe value="10.0"/>
    <remove-loops value="True"/>
    <validate value="True"/>
    <insertion-density value="12.0"/>
</configuration>
-->

<!-- generated on 2024-04-23 19:52:29 by Eclipse SUMO duarouter Version 1.19.0
<configuration xmlns:xsi="http://www.w3.org/2001/XMLSchema-instance" xsi:noNamespaceSchemaLocation="http://sumo.dlr.de/xsd/duarouterConfiguration.xsd">

    <input>
        <net-file value="F:\SUMO\OptimalEmission-SUMO-ReinforcementLearning\2024-04-23-19-52-17\osm.net.xml.gz"/>
        <route-files value="F:\SUMO\OptimalEmission-SUMO-ReinforcementLearning\2024-04-23-19-52-17\osm.passenger.trips.xml"/>
    </input>

    <output>
        <output-file value="F:\SUMO\OptimalEmission-SUMO-ReinforcementLearning\2024-04-23-19-52-17\osm.passenger.trips.xml.tmp"/>
        <alternatives-output value="NUL"/>
        <write-trips value="true"/>
    </output>

    <processing>
        <remove-loops value="true"/>
    </processing>

    <time>
        <begin value="0.0"/>
        <end value="3600.0"/>
    </time>

    <report>
        <no-warnings value="true"/>
        <ignore-errors value="true"/>
        <no-step-log value="true"/>
    </report>

</configuration>
-->

<routes xmlns:xsi="http://www.w3.org/2001/XMLSchema-instance" xsi:noNamespaceSchemaLocation="http://sumo.dlr.de/xsd/routes_file.xsd">
    <vType id="veh_passenger" vClass="passenger"/>
    <trip id="veh1" type="veh_passenger" depart="1.22" departLane="best" from="233763138#4" to="-216982399#1"/>
    <trip id="veh2" type="veh_passenger" depart="2.44" departLane="best" from="216984733#2" to="216980714#3"/>
    <trip id="veh3" type="veh_passenger" depart="3.66" departLane="best" from="400809387#8" to="-207617384#0"/>
    <trip id="veh4" type="veh_passenger" depart="4.88" departLane="best" from="949948460#0" to="-188589333#0"/>
    <trip id="veh5" type="veh_passenger" depart="6.10" departLane="best" from="-216984728" to="207607923#0"/>
    <trip id="veh6" type="veh_passenger" depart="7.32" departLane="best" from="-188589329" to="216970813#1"/>
    <trip id="veh7" type="veh_passenger" depart="8.54" departLane="best" from="216969137#3" to="207617087#10"/>
    <trip id="veh8" type="veh_passenger" depart="9.76" departLane="best" from="-216984736#1" to="-207626989#0"/>
    <trip id="veh9" type="veh_passenger" depart="10.98" departLane="best" from="233763107" to="-186412743#6"/>
    <trip id="veh10" type="veh_passenger" depart="12.20" departLane="best" from="-233760102#0" to="216982402"/>
    <trip id="veh11" type="veh_passenger" depart="13.42" departLane="best" departSpeed="max" from="-401028227" to="-207631121#2"/>
    <trip id="veh13" type="veh_passenger" depart="15.86" departLane="best" from="-207617385#12" to="-207617385#8"/>
    <trip id="veh14" type="veh_passenger" depart="17.08" departLane="best" from="400227124#4" to="-207628690#1"/>
    <trip id="veh15" type="veh_passenger" depart="18.30" departLane="best" from="233760104" to="216984742#3"/>
    <trip id="veh16" type="veh_passenger" depart="19.52" departLane="best" from="207613388#20" to="949030890"/>
    <trip id="veh17" type="veh_passenger" depart="20.74" departLane="best" from="-491327450" to="207617087#7"/>
    <trip id="veh18" type="veh_passenger" depart="21.96" departLane="best" departSpeed="max" from="397936211#0" to="207631119#0"/>
    <trip id="veh19" type="veh_passenger" depart="23.18" departLane="best" departSpeed="max" from="400409954#0" to="207626479#17"/>
    <trip id="veh20" type="veh_passenger" depart="24.40" departLane="best" from="216981395#7" to="207607923#3"/>
    <trip id="veh21" type="veh_passenger" depart="25.62" departLane="best" from="-216984736#6" to="-233763138#0"/>
    <trip id="veh22" type="veh_passenger" depart="26.85" departLane="best" from="207617087#0" to="-216984722#0"/>
    <trip id="veh23" type="veh_passenger" depart="28.07" departLane="best" departSpeed="max" from="-207626474#1" to="-233692706#7"/>
    <trip id="veh25" type="veh_passenger" depart="30.51" departLane="best" from="-491323084#2" to="216980712#2"/>
    <trip id="veh27" type="veh_passenger" depart="32.95" departLane="best" from="216969134" to="207628692#5"/>
    <trip id="veh29" type="veh_passenger" depart="35.39" departLane="best" from="207632321#2" to="-491323084#12"/>
    <trip id="veh30" type="veh_passenger" depart="36.61" departLane="best" from="949340122#1" to="216965792#2"/>
    <trip id="veh31" type="veh_passenger" depart="37.83" departLane="best" from="207617384#0" to="216981394#0"/>
    <trip id="veh32" type="veh_passenger" depart="39.05" departLane="best" from="399990515#8" to="233760096#1"/>
    <trip id="veh33" type="veh_passenger" depart="40.27" departLane="best" from="-216984739#1" to="-188589337#0"/>
    <trip id="veh34" type="veh_passenger" depart="41.49" departLane="best" from="400527279#4" to="-233692704#5"/>
    <trip id="veh35" type="veh_passenger" depart="42.71" departLane="best" departSpeed="max" from="-216982405#3" to="-732210983#4"/>
    <trip id="veh36" type="veh_passenger" depart="43.93" departLane="best" from="400747894#1" to="400409949#4"/>
    <trip id="veh37" type="veh_passenger" depart="45.15" departLane="best" departSpeed="max" from="216970154#0" to="502705642#3"/>
    <trip id="veh38" type="veh_passenger" depart="46.37" departLane="best" from="487965669#0" to="186411801#5"/>
    <trip id="veh39" type="veh_passenger" depart="47.59" departLane="best" from="207617385#14" to="-233692704#1"/>
    <trip id="veh40" type="veh_passenger" depart="48.81" departLane="best" from="-207626479#8" to="-487965667#0"/>
    <trip id="veh41" type="veh_passenger" depart="50.03" departLane="best" from="-732211004" to="-216982394#1"/>
    <trip id="veh42" type="veh_passenger" depart="51.25" departLane="best" departSpeed="max" from="996164515" to="207607923#8"/>
    <trip id="veh43" type="veh_passenger" depart="52.47" departLane="best" from="-207617384#4" to="-207607923#6"/>
    <trip id="veh44" type="veh_passenger" depart="53.69" departLane="best" from="-207626479#0" to="-207632321#3"/>
    <trip id="veh45" type="veh_passenger" depart="54.91" departLane="best" from="233760097#0" to="-949272579#0"/>
    <trip id="veh46" type="veh_passenger" depart="56.13" departLane="best" from="-207613388#13" to="-491323084#6"/>
    <trip id="veh47" type="veh_passenger" depart="57.35" departLane="best" departSpeed="max" from="996164515" to="-207613388#18"/>
    <trip id="veh48" type="veh_passenger" depart="58.57" departLane="best" from="911207327#4" to="400747893#0"/>
    <trip id="veh49" type="veh_passenger" depart="59.79" departLane="best" from="-186412743#8" to="216984736#14"/>
    <trip id="veh50" type="veh_passenger" depart="61.01" departLane="best" departSpeed="max" from="216980042#0" to="207613391#13"/>
    <trip id="veh51" type="veh_passenger" depart="62.23" departLane="best" from="-233760084#2" to="216965793#1"/>
    <trip id="veh52" type="veh_passenger" depart="63.45" departLane="best" from="-207626479#12" to="186410875#11"/>
    <trip id="veh53" type="veh_passenger" depart="64.67" departLane="best" from="186411801#3" to="910791461#1"/>
    <trip id="veh54" type="veh_passenger" depart="65.89" departLane="best" from="-400747894#0" to="-233692704#12"/>
    <trip id="veh55" type="veh_passenger" depart="67.11" departLane="best" from="-188615416#1" to="-216969137#0"/>
    <trip id="veh56" type="veh_passenger" depart="68.33" departLane="best" from="487965668#0" to="-400807654#0"/>
    <trip id="veh57" type="veh_passenger" depart="69.55" departLane="best" from="-400237755#0" to="216965792#2"/>
    <trip id="veh58" type="veh_passenger" depart="70.77" departLane="best" from="207628690#4" to="-207631120"/>
    <trip id="veh59" type="veh_passenger" depart="71.99" departLane="best" from="224390568" to="207613391#3"/>
    <trip id="veh60" type="veh_passenger" depart="73.21" departLane="best" from="233692706#6" to="207613388#2"/>
    <trip id="veh61" type="veh_passenger" depart="74.43" departLane="best" departSpeed="max" from="-1004514776" to="-400525824"/>
    <trip id="veh62" type="veh_passenger" depart="75.65" departLane="best" from="188589326#0" to="-491327503#4"/>
    <trip id="veh63" type="veh_passenger" depart="76.87" departLane="best" from="400747895#3" to="400237749#1"/>
    <trip id="veh64" type="veh_passenger" depart="78.10" departLane="best" from="-400525822#1" to="-207609918#9"/>
    <trip id="veh65" type="veh_passenger" depart="79.32" departLane="best" from="400747895#2" to="732211003"/>
    <trip id="veh66" type="veh_passenger" depart="80.54" departLane="best" from="207617087#21" to="188589326#13"/>
    <trip id="veh67" type="veh_passenger" depart="81.76" departLane="best" from="-207613388#6" to="233692706#20"/>
    <trip id="veh68" type="veh_passenger" depart="82.98" departLane="best" from="-233692704#15" to="-207628299#13"/>
    <trip id="veh69" type="veh_passenger" depart="84.20" departLane="best" from="188546078#3" to="-207617087#22"/>
    <trip id="veh70" type="veh_passenger" depart="85.42" departLane="best" from="-233692706#9" to="-400807655#2"/>
    <trip id="veh71" type="veh_passenger" depart="86.64" departLane="best" from="949948460#2" to="-216980713"/>
    <trip id="veh72" type="veh_passenger" depart="87.86" departLane="best" from="-207613388#8" to="216984742#3"/>
    <trip id="veh73" type="veh_passenger" depart="89.08" departLane="best" from="216981396#2" to="-400227127"/>
    <trip id="veh74" type="veh_passenger" depart="90.30" departLane="best" from="949948460#2" to="216970154#1"/>
    <trip id="veh75" type="veh_passenger" depart="91.52" departLane="best" from="186410875#4" to="207609918#2"/>
    <trip id="veh76" type="veh_passenger" depart="92.74" departLane="best" from="-207626987#12" to="-216982401"/>
    <trip id="veh77" type="veh_passenger" depart="93.96" departLane="best" from="-401028224" to="207626987#9"/>
    <trip id="veh78" type="veh_passenger" depart="95.18" departLane="best" from="-216984742#1" to="-216982397"/>
    <trip id="veh79" type="veh_passenger" depart="96.40" departLane="best" from="-207613391#1" to="208447378#2"/>
    <trip id="veh80" type="veh_passenger" depart="97.62" departLane="best" from="216984739#1" to="487965669#2"/>
    <trip id="veh81" type="veh_passenger" depart="98.84" departLane="best" from="400409951#1" to="-207613391#1"/>
    <trip id="veh82" type="veh_passenger" depart="100.06" departLane="best" from="-216984746#1" to="216980043#0"/>
    <trip id="veh83" type="veh_passenger" depart="101.28" departLane="best" from="-216984720#4" to="-207628300#1"/>
    <trip id="veh84" type="veh_passenger" depart="102.50" departLane="best" from="-491327450" to="207626476#3"/>
    <trip id="veh85" type="veh_passenger" depart="103.72" departLane="best" departSpeed="max" from="188546078#0" to="233760097#5"/>
    <trip id="veh86" type="veh_passenger" depart="104.94" departLane="best" from="233760106" to="216970160#1"/>
    <trip id="veh87" type="veh_passenger" depart="106.16" departLane="best" from="-207617385#3" to="1004514777"/>
    <trip id="veh88" type="veh_passenger" depart="107.38" departLane="best" departSpeed="max" from="-972921371" to="186412743#17"/>
    <trip id="veh89" type="veh_passenger" depart="108.60" departLane="best" from="216984720#7" to="216980714#0"/>
    <trip id="veh90" type="veh_passenger" depart="109.82" departLane="best" from="949030891" to="-207626475#1"/>
    <trip id="veh91" type="veh_passenger" depart="111.04" departLane="best" from="-910791462#3" to="-400809387#0"/>
    <trip id="veh92" type="veh_passenger" depart="112.26" departLane="best" departSpeed="max" from="400409954#0" to="-216984744#0"/>
    <trip id="veh93" type="veh_passenger" depart="113.48" departLane="best" from="-216970814" to="186410875#8"/>
    <trip id="veh94" type="veh_passenger" depart="114.70" departLane="best" from="-949948458#1" to="-233692706#8"/>
    <trip id="veh95" type="veh_passenger" depart="115.92" departLane="best" from="-233692704#18" to="491325494"/>
    <trip id="veh96" type="veh_passenger" depart="117.14" departLane="best" departSpeed="max" from="186411801#0" to="-400747893#2"/>
    <trip id="veh97" type="veh_passenger" depart="118.36" departLane="best" from="207617087#14" to="-207607925#2"/>
    <trip id="veh98" type="veh_passenger" depart="119.58" departLane="best" departSpeed="max" from="996164515" to="400237755#0"/>
    <trip id="veh99" type="veh_passenger" depart="120.80" departLane="best" from="911121881" to="491327503#11"/>
    <trip id="veh100" type="veh_passenger" depart="122.02" departLane="best" from="-400227125" to="-216965789#0"/>
    <trip id="veh101" type="veh_passenger" depart="123.24" departLane="best" from="188589322#4" to="-216981392#4"/>
    <trip id="veh102" type="veh_passenger" depart="124.46" departLane="best" from="733131403#0" to="-207609920#1"/>
    <trip id="veh103" type="veh_passenger" depart="125.68" departLane="best" from="-491327503#0" to="949340122#1"/>
    <trip id="veh104" type="veh_passenger" depart="126.90" departLane="best" from="-233692706#9" to="233760097#4"/>
    <trip id="veh105" type="veh_passenger" depart="128.12" departLane="best" from="186411801#4" to="-949340122#0"/>
    <trip id="veh107" type="veh_passenger" depart="130.57" departLane="best" from="-207617087#7" to="216984736#1"/>
    <trip id="veh108" type="veh_passenger" depart="131.79" departLane="best" from="207631119#0" to="305927218#3"/>
    <trip id="veh109" type="veh_passenger" depart="133.01" departLane="best" from="911121880" to="207626479#18"/>
    <trip id="veh110" type="veh_passenger" depart="134.23" departLane="best" from="207613391#12" to="233692704#15"/>
    <trip id="veh111" type="veh_passenger" depart="135.45" departLane="best" from="-207612565#0" to="207626987#10"/>
    <trip id="veh112" type="veh_passenger" depart="136.67" departLane="best" from="188659818#2" to="400525822#3"/>
    <trip id="veh113" type="veh_passenger" depart="137.89" departLane="best" from="-207631121#0" to="911207327#4"/>
    <trip id="veh114" type="veh_passenger" depart="139.11" departLane="best" from="207617087#1" to="-216970157#1"/>
    <trip id="veh115" type="veh_passenger" depart="140.33" departLane="best" departSpeed="max" from="207628299#0" to="216980718#0"/>
    <trip id="veh116" type="veh_passenger" depart="141.55" departLane="best" from="-216984744#6" to="-207626988"/>
    <trip id="veh117" type="veh_passenger" depart="142.77" departLane="best" from="400809387#4" to="-216984742#1"/>
    <trip id="veh118" type="veh_passenger" depart="143.99" departLane="best" from="-949340120" to="-207626987#1"/>
    <trip id="veh119" type="veh_passenger" depart="145.21" departLane="best" from="207607925#9" to="502705642#3"/>
    <trip id="veh120" type="veh_passenger" depart="146.43" departLane="best" from="-216981398#5" to="216984733#1"/>
    <trip id="veh121" type="veh_passenger" depart="147.65" departLane="best" from="-216984746#2" to="502705642#3"/>
    <trip id="veh122" type="veh_passenger" depart="148.87" departLane="best" from="-216970164#2" to="-397936205#3"/>
    <trip id="veh123" type="veh_passenger" depart="150.09" departLane="best" from="-400747893#0" to="-233692704#2"/>
    <trip id="veh124" type="veh_passenger" depart="151.31" departLane="best" from="-207613391#12" to="186411801#4"/>
    <trip id="veh125" type="veh_passenger" depart="152.53" departLane="best" departSpeed="max" from="996164515" to="972921371"/>
    <trip id="veh126" type="veh_passenger" depart="153.75" departLane="best" from="-207613391#14" to="-216981392#2"/>
    <trip id="veh127" type="veh_passenger" depart="154.97" departLane="best" from="-233692706#9" to="502705642#3"/>
    <trip id="veh128" type="veh_passenger" depart="156.19" departLane="best" from="400807654#1" to="400809387#12"/>
    <trip id="veh129" type="veh_passenger" depart="157.41" departLane="best" from="-491323084#11" to="-207632317#0"/>
    <trip id="veh130" type="veh_passenger" depart="158.63" departLane="best" from="-397992455#0" to="216984716#1"/>
    <trip id="veh131" type="veh_passenger" depart="159.85" departLane="best" from="207628692#3" to="949340125#1"/>
    <trip id="veh132" type="veh_passenger" depart="161.07" departLane="best" departSpeed="max" from="216970154#0" to="-188508701"/>
    <trip id="veh133" type="veh_passenger" depart="162.29" departLane="best" from="233763138#4" to="-397936205#1"/>
    <trip id="veh134" type="veh_passenger" depart="163.51" departLane="best" from="-216970160#1" to="732210974#1"/>
    <trip id="veh135" type="veh_passenger" depart="164.73" departLane="best" from="207628299#9" to="-207626987#10"/>
    <trip id="veh136" type="veh_passenger" depart="165.95" departLane="best" from="233763130#2" to="207628690#3"/>
    <trip id="veh137" type="veh_passenger" depart="167.17" departLane="best" from="-216982402" to="-216980036#1"/>
    <trip id="veh139" type="veh_passenger" depart="169.61" departLane="best" from="188589326#11" to="487965669#2"/>
    <trip id="veh140" type="veh_passenger" depart="170.83" departLane="best" from="400227124#1" to="207617385#17"/>
    <trip id="veh141" type="veh_passenger" depart="172.05" departLane="best" departSpeed="max" from="-972921371" to="-233692706#4"/>
    <trip id="veh142" type="veh_passenger" depart="173.27" departLane="best" departSpeed="max" from="-1004514777" to="233760091#1"/>
    <trip id="veh144" type="veh_passenger" depart="175.71" departLane="best" from="-216984736#16" to="207617087#6"/>
    <trip id="veh145" type="veh_passenger" depart="176.93" departLane="best" departSpeed="max" from="1004514785" to="-188508701"/>
    <trip id="veh146" type="veh_passenger" depart="178.15" departLane="best" from="207613391#3" to="401028225"/>
    <trip id="veh147" type="veh_passenger" depart="179.37" departLane="best" from="474831620#2" to="207617087#12"/>
    <trip id="veh148" type="veh_passenger" depart="180.60" departLane="best" from="-397992455#2" to="207626479#8"/>
    <trip id="veh149" type="veh_passenger" depart="181.82" departLane="best" from="-207629479#4" to="-207628299#11"/>
    <trip id="veh150" type="veh_passenger" depart="183.04" departLane="best" departSpeed="max" from="-400525822#3" to="-487965667#11"/>
    <trip id="veh151" type="veh_passenger" depart="184.26" departLane="best" from="233760097#12" to="400747893#0"/>
    <trip id="veh152" type="veh_passenger" depart="185.48" departLane="best" from="401239540#7" to="-216980713"/>
    <trip id="veh153" type="veh_passenger" depart="186.70" departLane="best" from="233692704#17" to="-207626476#0"/>
    <trip id="veh154" type="veh_passenger" depart="187.92" departLane="best" from="233692706#9" to="401028227"/>
    <trip id="veh155" type="veh_passenger" depart="189.14" departLane="best" from="912243868#1" to="207631119#5"/>
    <trip id="veh156" type="veh_passenger" depart="190.36" departLane="best" from="207631119#0" to="491327503#6"/>
    <trip id="veh157" type="veh_passenger" depart="191.58" departLane="best" from="400412772#1" to="949270609"/>
    <trip id="veh158" type="veh_passenger" depart="192.80" departLane="best" from="233763129" to="400809387#6"/>
    <trip id="veh159" type="veh_passenger" depart="194.02" departLane="best" from="188589326#5" to="216984746#1"/>
    <trip id="veh160" type="veh_passenger" depart="195.24" departLane="best" departSpeed="max" from="-400807657#2" to="491327503#8"/>
    <trip id="veh161" type="veh_passenger" depart="196.46" departLane="best" from="233760097#7" to="400747894#0"/>
    <trip id="veh162" type="veh_passenger" depart="197.68" departLane="best" from="233763129" to="-233692704#3"/>
    <trip id="veh163" type="veh_passenger" depart="198.90" departLane="best" from="233760089" to="-207626479#10"/>
    <trip id="veh164" type="veh_passenger" depart="200.12" departLane="best" from="-400527278#2" to="-400527279#0"/>
    <trip id="veh165" type="veh_passenger" depart="201.34" departLane="best" from="-216984736#14" to="397992455#5"/>
    <trip id="veh166" type="veh_passenger" depart="202.56" departLane="best" from="-186412743#1" to="-397937622"/>
    <trip id="veh167" type="veh_passenger" depart="203.78" departLane="best" from="233760097#12" to="216982405#1"/>
    <trip id="veh168" type="veh_passenger" depart="205.00" departLane="best" from="188589326#2" to="-216970162#0"/>
    <trip id="veh169" type="veh_passenger" depart="206.22" departLane="best" from="-400807656#0" to="400747894#1"/>
    <trip id="veh170" type="veh_passenger" depart="207.44" departLane="best" from="911091199#1" to="-233692706#9"/>
    <trip id="veh172" type="veh_passenger" depart="209.88" departLane="best" from="932534549#0" to="207613391#11"/>
    <trip id="veh173" type="veh_passenger" depart="211.10" departLane="best" from="911207327#2" to="-216969137#0"/>
    <trip id="veh174" type="veh_passenger" depart="212.32" departLane="best" from="216984720#6" to="-400409949#1"/>
    <trip id="veh175" type="veh_passenger" depart="213.54" departLane="best" from="207628300#8" to="207607925#11"/>
    <trip id="veh177" type="veh_passenger" depart="215.98" departLane="best" from="-233692704#7" to="216984720#1"/>
    <trip id="veh178" type="veh_passenger" depart="217.20" departLane="best" departSpeed="max" from="-1004514776" to="-491327503#0"/>
    <trip id="veh179" type="veh_passenger" depart="218.42" departLane="best" from="207613388#6" to="216984736#11"/>
    <trip id="veh180" type="veh_passenger" depart="219.64" departLane="best" from="216984736#3" to="216980043#2"/>
    <trip id="veh181" type="veh_passenger" depart="220.86" departLane="best" from="487965671#5" to="-207613389"/>
    <trip id="veh182" type="veh_passenger" depart="222.08" departLane="best" from="-216970160#3" to="400747894#2"/>
    <trip id="veh183" type="veh_passenger" depart="223.30" departLane="best" from="216982406" to="-397936205#4"/>
    <trip id="veh184" type="veh_passenger" depart="224.52" departLane="best" departSpeed="max" from="-400525822#3" to="-910697485"/>
    <trip id="veh185" type="veh_passenger" depart="225.74" departLane="best" from="-910791462#2" to="305927218#1"/>
    <trip id="veh186" type="veh_passenger" depart="226.96" departLane="best" from="-207626989#5" to="-932534550"/>
    <trip id="veh187" type="veh_passenger" depart="228.18" departLane="best" from="-491327503#7" to="216980718#4"/>
    <trip id="veh188" type="veh_passenger" depart="229.40" departLane="best" departSpeed="max" from="474831620#0" to="207629917#0"/>
    <trip id="veh189" type="veh_passenger" depart="230.62" departLane="best" from="400409949#6" to="207617087#18"/>
    <trip id="veh190" type="veh_passenger" depart="231.85" departLane="best" departSpeed="max" from="-1004514776" to="233763134#0"/>
    <trip id="veh191" type="veh_passenger" depart="233.07" departLane="best" from="186410875#1" to="-207626479#2"/>
    <trip id="veh192" type="veh_passenger" depart="234.29" departLane="best" departSpeed="max" from="216970154#0" to="186412743#13"/>
    <trip id="veh193" type="veh_passenger" depart="235.51" departLane="best" from="186410875#9" to="-216981392#4"/>
    <trip id="veh194" type="veh_passenger" depart="236.73" departLane="best" departSpeed="max" from="188546078#0" to="487965667#6"/>
    <trip id="veh195" type="veh_passenger" depart="237.95" departLane="best" from="233760097#12" to="-216965790#0"/>
    <trip id="veh196" type="veh_passenger" depart="239.17" departLane="best" from="-207617087#2" to="207609918#0"/>
    <trip id="veh198" type="veh_passenger" depart="241.61" departLane="best" from="188546077" to="233692704#19"/>
    <trip id="veh199" type="veh_passenger" depart="242.83" departLane="best" from="216970164#4" to="-216982401"/>
    <trip id="veh200" type="veh_passenger" depart="244.05" departLane="best" from="-216981392#3" to="-188589326#14"/>
    <trip id="veh201" type="veh_passenger" depart="245.27" departLane="best" from="400237749#0" to="-207613391#14"/>
    <trip id="veh202" type="veh_passenger" depart="246.49" departLane="best" from="-949272579#0" to="208447378#2"/>
    <trip id="veh203" type="veh_passenger" depart="247.71" departLane="best" departSpeed="max" from="-216980043#2" to="-216982397"/>
    <trip id="veh204" type="veh_passenger" depart="248.93" departLane="best" departSpeed="max" from="188589333#0" to="-216984736#6"/>
    <trip id="veh205" type="veh_passenger" depart="250.15" departLane="best" from="216970154#1" to="186412743#3"/>
    <trip id="veh206" type="veh_passenger" depart="251.37" departLane="best" from="216984744#6" to="233760104"/>
    <trip id="veh207" type="veh_passenger" depart="252.59" departLane="best" from="207626476#2" to="-949948458#1"/>
    <trip id="veh208" type="veh_passenger" depart="253.81" departLane="best" from="-216969137#2" to="911121880"/>
    <trip id="veh209" type="veh_passenger" depart="255.03" departLane="best" from="207607925#0" to="-207607925#12"/>
    <trip id="veh210" type="veh_passenger" depart="256.25" departLane="best" from="233692704#16" to="400413272"/>
    <trip id="veh211" type="veh_passenger" depart="257.47" departLane="best" from="186411801#6" to="-233779979#1"/>
    <trip id="veh212" type="veh_passenger" depart="258.69" departLane="best" from="216970162#2" to="949340126#0"/>
    <trip id="veh213" type="veh_passenger" depart="259.91" departLane="best" departSpeed="max" from="207628299#0" to="-733131403#0"/>
    <trip id="veh214" type="veh_passenger" depart="261.13" departLane="best" from="400809387#7" to="-207629479#5"/>
    <trip id="veh215" type="veh_passenger" depart="262.35" departLane="best" from="216982405#2" to="207607914#2"/>
    <trip id="veh216" type="veh_passenger" depart="263.57" departLane="best" departSpeed="max" from="397936211#0" to="207617087#18"/>
    <trip id="veh217" type="veh_passenger" depart="264.79" departLane="best" from="401239540#3" to="-217152115#0"/>
    <trip id="veh218" type="veh_passenger" depart="266.01" departLane="best" from="188546078#1" to="-216984759#3"/>
    <trip id="veh219" type="veh_passenger" depart="267.23" departLane="best" from="-233692704#12" to="216965792#1"/>
    <trip id="veh220" type="veh_passenger" depart="268.45" departLane="best" from="233692704#15" to="207612565#0"/>
    <trip id="veh221" type="veh_passenger" depart="269.67" departLane="best" from="207631121#4" to="-233692706#2"/>
    <trip id="veh222" type="veh_passenger" depart="270.89" departLane="best" from="-233763130#0" to="-400412771"/>
    <trip id="veh223" type="veh_passenger" depart="272.11" departLane="best" from="207613390" to="-207628690#4"/>
    <trip id="veh224" type="veh_passenger" depart="273.33" departLane="best" departSpeed="max" from="-216984742#3" to="216981398#3"/>
    <trip id="veh225" type="veh_passenger" depart="274.55" departLane="best" from="216981396#3" to="-207613388#16"/>
    <trip id="veh226" type="veh_passenger" depart="275.77" departLane="best" from="-917725346" to="207617086#1"/>
    <trip id="veh227" type="veh_passenger" depart="276.99" departLane="best" departSpeed="max" from="-949272579#1" to="-216980042#1"/>
    <trip id="veh228" type="veh_passenger" depart="278.21" departLane="best" from="-949340122#1" to="487965669#1"/>
    <trip id="veh229" type="veh_passenger" depart="279.43" departLane="best" from="207626479#7" to="216982394#1"/>
    <trip id="veh230" type="veh_passenger" depart="280.65" departLane="best" from="-400409949#8" to="233750312"/>
    <trip id="veh231" type="veh_passenger" depart="281.87" departLane="best" from="-491327503#13" to="-186412743#4"/>
    <trip id="veh232" type="veh_passenger" depart="283.10" departLane="best" from="400409945" to="910776137#1"/>
    <trip id="veh233" type="veh_passenger" depart="284.32" departLane="best" from="-949340120" to="-233692704#13"/>
    <trip id="veh234" type="veh_passenger" depart="285.54" departLane="best" from="207613391#7" to="-207628690#0"/>
    <trip id="veh235" type="veh_passenger" depart="286.76" departLane="best" from="216984736#1" to="-216982394#1"/>
    <trip id="veh236" type="veh_passenger" depart="287.98" departLane="best" from="186410875#16" to="-188589333#0"/>
    <trip id="veh237" type="veh_passenger" depart="289.20" departLane="best" from="-400809387#4" to="216981389#1"/>
    <trip id="veh238" type="veh_passenger" depart="290.42" departLane="best" from="911207327#1" to="-216965789#0"/>
    <trip id="veh239" type="veh_passenger" depart="291.64" departLane="best" departSpeed="max" from="188508701" to="-207628299#12"/>
    <trip id="veh240" type="veh_passenger" depart="292.86" departLane="best" from="207631119#5" to="188589326#5"/>
    <trip id="veh241" type="veh_passenger" depart="294.08" departLane="best" from="732210983#4" to="207626474#0"/>
    <trip id="veh242" type="veh_passenger" depart="295.30" departLane="best" from="188589333#1" to="-216969130#2"/>
    <trip id="veh243" type="veh_passenger" depart="296.52" departLane="best" from="-207628300#2" to="186411801#8"/>
    <trip id="veh244" type="veh_passenger" depart="297.74" departLane="best" from="-207607925#7" to="-491323084#11"/>