<?xml version="1.0" encoding="UTF-8"?>

<!-- generated on 2024-04-23 19:52:34.111482 by osmWebWizard.py v1_19_0+0000-baa66a0f364
<configuration>
    <net-file value="F:\SUMO\OptimalEmission-SUMO-ReinforcementLearning\2024-04-23-19-52-17\osm.net.xml.gz"/>
    <output-trip-file value="F:\SUMO\OptimalEmission-SUMO-ReinforcementLearning\2024-04-23-19-52-17\osm.truck.trips.xml"/>
    <route-file value="F:\SUMO\OptimalEmission-SUMO-ReinforcementLearning\2024-04-23-19-52-17\osm.truck.rou.xml"/>
    <prefix value="truck"/>
    <trip-attributes value="departLane=&quot;best&quot;"/>
    <fringe-start-attributes value="departSpeed=&quot;max&quot;"/>
    <vehicle-class value="truck"/>
    <fringe-factor value="5"/>
    <vclass value="truck"/>
    <via-edge-types value="highway.motorway,highway.motorway_link,highway.trunk_link,highway.primary_link,highway.secondary_link,highway.tertiary_link"/>
    <min-distance value="600.0"/>
    <min-distance.fringe value="10.0"/>
    <remove-loops value="True"/>
    <validate value="True"/>
    <insertion-density value="8.0"/>
</configuration>
-->

<!-- generated on 2024-04-23 19:52:33 by Eclipse SUMO duarouter Version 1.19.0
<configuration xmlns:xsi="http://www.w3.org/2001/XMLSchema-instance" xsi:noNamespaceSchemaLocation="http://sumo.dlr.de/xsd/duarouterConfiguration.xsd">

    <input>
        <net-file value="F:\SUMO\OptimalEmission-SUMO-ReinforcementLearning\2024-04-23-19-52-17\osm.net.xml.gz"/>
        <route-files value="F:\SUMO\OptimalEmission-SUMO-ReinforcementLearning\2024-04-23-19-52-17\osm.truck.trips.xml"/>
    </input>

    <output>
        <output-file value="F:\SUMO\OptimalEmission-SUMO-ReinforcementLearning\2024-04-23-19-52-17\osm.truck.trips.xml.tmp"/>
        <alternatives-output value="NUL"/>
        <write-trips value="true"/>
    </output>

    <processing>
        <remove-loops value="true"/>
    </processing>

    <time>
        <begin value="0.0"/>
        <end value="3600.0"/>
    </time>

    <report>
        <no-warnings value="true"/>
        <ignore-errors value="true"/>
        <no-step-log value="true"/>
    </report>

</configuration>
-->

<routes xmlns:xsi="http://www.w3.org/2001/XMLSchema-instance" xsi:noNamespaceSchemaLocation="http://sumo.dlr.de/xsd/routes_file.xsd">
    <vType id="truck_truck" vClass="truck"/>
    <trip id="truck1" type="truck_truck" depart="1.83" departLane="best" from="-233692706#9" to="-216981396#2"/>
    <trip id="truck2" type="truck_truck" depart="3.66" departLane="best" departSpeed="max" from="216984723#0" to="216980714#0"/>
    <trip id="truck3" type="truck_truck" depart="5.49" departLane="best" departSpeed="max" from="400965038" to="-207617087#3"/>
    <trip id="truck4" type="truck_truck" depart="7.32" departLane="best" from="932534550" to="-188589329"/>
    <trip id="truck5" type="truck_truck" depart="9.15" departLane="best" departSpeed="max" from="-216982405#3" to="207607923#0"/>
    <trip id="truck6" type="truck_truck" depart="10.98" departLane="best" from="188589326#8" to="-216970162#0"/>
    <trip id="truck7" type="truck_truck" depart="12.81" departLane="best" from="216969134" to="207617086#1"/>
    <trip id="truck8" type="truck_truck" depart="14.64" departLane="best" from="-216982406" to="207626987#4"/>
    <trip id="truck9" type="truck_truck" depart="16.47" departLane="best" from="233763129" to="186412743#5"/>
    <trip id="truck10" type="truck_truck" depart="18.30" departLane="best" from="233760103" to="216981398#4"/>
    <trip id="truck11" type="truck_truck" depart="20.13" departLane="best" departSpeed="max" from="-400807657#2" to="-207631119#0"/>
    <trip id="truck13" type="truck_truck" depart="23.79" departLane="best" from="-207617384#0" to="207617385#19"/>
    <trip id="truck14" type="truck_truck" depart="25.62" departLane="best" from="400237749#0" to="207628300#3"/>
    <trip id="truck15" type="truck_truck" depart="27.46" departLane="best" from="233760107" to="216984736#3"/>
    <trip id="truck16" type="truck_truck" depart="29.29" departLane="best" from="207613388#6" to="935382800"/>
    <trip id="truck17" type="truck_truck" depart="31.12" departLane="best" departSpeed="max" from="397936211#0" to="207629480#4"/>
    <trip id="truck18" type="truck_truck" depart="32.95" departLane="best" from="400409954#1" to="207626479#10"/>
    <trip id="truck19" type="truck_truck" depart="34.78" departLane="best" from="216981395#0" to="-207607923#10"/>
    <trip id="truck20" type="truck_truck" depart="36.61" departLane="best" from="-216984734" to="-233692706#9"/>
    <trip id="truck21" type="truck_truck" depart="38.44" departLane="best" from="-207613391#9" to="-216982401"/>
    <trip id="truck22" type="truck_truck" depart="40.27" departLane="best" from="-207617385#3" to="-233692704#5"/>
    <trip id="truck24" type="truck_truck" depart="43.93" departLane="best" from="-487965669#1" to="-216980036#0"/>
    <trip id="truck26" type="truck_truck" depart="47.59" departLane="best" from="216969130#1" to="207628690#5"/>
    <trip id="truck28" type="truck_truck" depart="51.25" departLane="best" from="-207631121#0" to="-487965669#0"/>
    <trip id="truck29" type="truck_truck" depart="53.08" departLane="best" from="216984716#5" to="-216965790#2"/>
    <trip id="truck30" type="truck_truck" depart="54.91" departLane="best" from="-207617384#3" to="216981389#5"/>
    <trip id="truck31" type="truck_truck" depart="56.74" departLane="best" from="400159440" to="233760086"/>
    <trip id="truck32" type="truck_truck" depart="58.57" departLane="best" from="-216984736#1" to="-188589333#0"/>
    <trip id="truck33" type="truck_truck" depart="60.40" departLane="best" from="-400525822#2" to="-216984759#0"/>
    <trip id="truck34" type="truck_truck" depart="62.23" departLane="best" from="-216981398#2" to="-732210983#2"/>
    <trip id="truck35" type="truck_truck" depart="64.06" departLane="best" from="-400747894#3" to="-397936211#0"/>
    <trip id="truck36" type="truck_truck" depart="65.89" departLane="best" from="216969139#6" to="-491323087#0"/>
    <trip id="truck37" type="truck_truck" depart="67.72" departLane="best" from="233692704#8" to="-216984729"/>
    <trip id="truck38" type="truck_truck" depart="69.55" departLane="best" from="-207617385#17" to="-216984746#3"/>
    <trip id="truck39" type="truck_truck" depart="71.38" departLane="best" from="207626987#1" to="487965667#10"/>
    <trip id="truck41" type="truck_truck" depart="75.04" departLane="best" from="972921372" to="207607923#8"/>
    <trip id="truck42" type="truck_truck" depart="76.87" departLane="best" from="-207617087#6" to="-207607923#2"/>
    <trip id="truck43" type="truck_truck" depart="78.71" departLane="best" from="207626475#8" to="-207631121#4"/>
    <trip id="truck44" type="truck_truck" depart="80.54" departLane="best" from="-233760084#2" to="-910697485"/>
    <trip id="truck45" type="truck_truck" depart="82.37" departLane="best" departSpeed="max" from="-207612566#3" to="-487965671#1"/>
    <trip id="truck46" type="truck_truck" depart="84.20" departLane="best" from="949948460#0" to="207613388#16"/>
    <trip id="truck47" type="truck_truck" depart="86.03" departLane="best" from="911207327#1" to="400747893#3"/>
    <trip id="truck48" type="truck_truck" depart="87.86" departLane="best" from="-186412743#6" to="216984733#0"/>
    <trip id="truck49" type="truck_truck" depart="89.69" departLane="best" departSpeed="max" from="216980036#0" to="207613391#10"/>
    <trip id="truck50" type="truck_truck" depart="91.52" departLane="best" from="-233692706#10" to="216965792#2"/>
    <trip id="truck51" type="truck_truck" depart="93.35" departLane="best" from="-207626476#4" to="-949270610"/>
    <trip id="truck52" type="truck_truck" depart="95.18" departLane="best" from="400747894#2" to="216984746#4"/>
    <trip id="truck53" type="truck_truck" depart="97.01" departLane="best" from="-188659818#0" to="-216965792#0"/>
    <trip id="truck54" type="truck_truck" depart="98.84" departLane="best" departSpeed="max" from="-397992455#5" to="-216965789#2"/>
    <trip id="truck55" type="truck_truck" depart="100.67" departLane="best" from="-207628690#3" to="-207629917#1"/>
    <trip id="truck56" type="truck_truck" depart="102.50" departLane="best" departSpeed="max" from="216984759#0" to="207613391#16"/>
    <trip id="truck57" type="truck_truck" depart="104.33" departLane="best" from="233692706#13" to="207613388#18"/>
    <trip id="truck58" type="truck_truck" depart="106.16" departLane="best" departSpeed="max" from="-1004514776" to="-400409949#2"/>
    <trip id="truck59" type="truck_truck" depart="107.99" departLane="best" from="-188589322#5" to="491327503#2"/>
    <trip id="truck60" type="truck_truck" depart="109.82" departLane="best" from="400807650" to="400237751#1"/>
    <trip id="truck61" type="truck_truck" depart="111.65" departLane="best" from="-400409949#2" to="-207609918#2"/>
    <trip id="truck62" type="truck_truck" depart="113.48" departLane="best" from="400751432" to="-732211001"/>
    <trip id="truck63" type="truck_truck" depart="115.31" departLane="best" from="-207617087#14" to="188589326#15"/>
    <trip id="truck64" type="truck_truck" depart="117.14" departLane="best" from="-207613388#20" to="-233692704#7"/>
    <trip id="truck65" type="truck_truck" depart="118.97" departLane="best" from="188546417#0" to="-207617087#19"/>
    <trip id="truck67" type="truck_truck" depart="122.63" departLane="best" from="-949948458#1" to="216969139#0"/>
    <trip id="truck68" type="truck_truck" depart="124.46" departLane="best" departSpeed="max" from="1004514785" to="207609918#12"/>
    <trip id="truck69" type="truck_truck" depart="126.29" departLane="best" from="207626479#3" to="-216981398#0"/>
    <trip id="truck70" type="truck_truck" depart="128.12" departLane="best" from="-400807656#3" to="-207626987#2"/>
    <trip id="truck71" type="truck_truck" depart="129.96" departLane="best" from="216984736#12" to="-216981388"/>
    <trip id="truck72" type="truck_truck" depart="131.79" departLane="best" from="-207613388#5" to="207632321#1"/>
    <trip id="truck73" type="truck_truck" depart="133.62" departLane="best" from="-216984736#1" to="487965670#1"/>
    <trip id="truck74" type="truck_truck" depart="135.45" departLane="best" departSpeed="max" from="400409954#0" to="-207613388#5"/>
    <trip id="truck75" type="truck_truck" depart="137.28" departLane="best" from="-216984739#1" to="216970816#2"/>
    <trip id="truck76" type="truck_truck" depart="139.11" departLane="best" from="216982397" to="207628299#11"/>
    <trip id="truck77" type="truck_truck" depart="140.94" departLane="best" from="491327449#1" to="207626475#5"/>
    <trip id="truck78" type="truck_truck" depart="142.77" departLane="best" from="188546078#2" to="233760097#12"/>
    <trip id="truck79" type="truck_truck" depart="144.60" departLane="best" from="233763106" to="-216970154#1"/>
    <trip id="truck80" type="truck_truck" depart="146.43" departLane="best" from="207617385#13" to="-917725347"/>
    <trip id="truck82" type="truck_truck" depart="150.09" departLane="best" from="216984716#8" to="216980043#2"/>
    <trip id="truck83" type="truck_truck" depart="151.92" departLane="best" from="935382799" to="-207617385#4"/>
    <trip id="truck85" type="truck_truck" depart="155.58" departLane="best" from="400409954#1" to="-216984736#10"/>
    <trip id="truck86" type="truck_truck" depart="157.41" departLane="best" from="-216970160#3" to="186410875#15"/>
    <trip id="truck87" type="truck_truck" depart="159.24" departLane="best" from="-932534550" to="-233692704#6"/>
    <trip id="truck88" type="truck_truck" depart="161.07" departLane="best" from="-216984755#1" to="491325494"/>
    <trip id="truck89" type="truck_truck" depart="162.90" departLane="best" from="186410875#13" to="400747893#3"/>
    <trip id="truck90" type="truck_truck" depart="164.73" departLane="best" from="207617087#2" to="-207607925#1"/>
    <trip id="truck91" type="truck_truck" depart="166.56" departLane="best" departSpeed="max" from="996164515" to="400409949#4"/>
    <trip id="truck92" type="truck_truck" depart="168.39" departLane="best" from="911091199#3" to="491327503#10"/>
    <trip id="truck93" type="truck_truck" depart="170.22" departLane="best" from="-400237751#0" to="-207632321#1"/>
    <trip id="truck94" type="truck_truck" depart="172.05" departLane="best" from="188589326#10" to="-216980042#0"/>
    <trip id="truck96" type="truck_truck" depart="175.71" departLane="best" from="491323084#10" to="949340121#2"/>
    <trip id="truck97" type="truck_truck" depart="177.54" departLane="best" from="233692704#9" to="233760097#11"/>
    <trip id="truck98" type="truck_truck" depart="179.37" departLane="best" from="186411801#5" to="-910791462#0"/>
    <trip id="truck100" type="truck_truck" depart="183.04" departLane="best" from="-207617384#1" to="216984725"/>
    <trip id="truck101" type="truck_truck" depart="184.87" departLane="best" from="-207629480#0" to="-233763130#2"/>
    <trip id="truck102" type="truck_truck" depart="186.70" departLane="best" from="911091199#3" to="207626479#15"/>
    <trip id="truck103" type="truck_truck" depart="188.53" departLane="best" from="-207613391#16" to="-216984759#1"/>
    <trip id="truck104" type="truck_truck" depart="190.36" departLane="best" from="-207609918#6" to="-207626479#5"/>
    <trip id="truck105" type="truck_truck" depart="192.19" departLane="best" from="188659819#2" to="400527278#0"/>
    <trip id="truck106" type="truck_truck" depart="194.02" departLane="best" from="-207629917#0" to="911207327#3"/>
    <trip id="truck107" type="truck_truck" depart="195.85" departLane="best" from="-207617086#0" to="-216969137#1"/>
    <trip id="truck108" type="truck_truck" depart="197.68" departLane="best" departSpeed="max" from="207628299#0" to="216980043#2"/>
    <trip id="truck109" type="truck_truck" depart="199.51" departLane="best" from="-216984736#3" to="207626987#11"/>
    <trip id="truck110" type="truck_truck" depart="201.34" departLane="best" from="400809387#5" to="216984728"/>
    <trip id="truck111" type="truck_truck" depart="203.17" departLane="best" departSpeed="max" from="207628299#0" to="-207629480#5"/>
    <trip id="truck112" type="truck_truck" depart="205.00" departLane="best" from="-917725347" to="-207626479#4"/>
    <trip id="truck113" type="truck_truck" depart="206.83" departLane="best" from="207609918#2" to="502705642#3"/>
    <trip id="truck114" type="truck_truck" depart="208.66" departLane="best" from="216980712#0" to="-216984720#7"/>
    <trip id="truck115" type="truck_truck" depart="210.49" departLane="best" from="216970162#7" to="-233763138#0"/>
    <trip id="truck116" type="truck_truck" depart="212.32" departLane="best" departSpeed="max" from="-400525822#3" to="233692704#1"/>
    <trip id="truck117" type="truck_truck" depart="214.15" departLane="best" from="-207613388#8" to="186411801#2"/>
    <trip id="truck118" type="truck_truck" depart="215.98" departLane="best" departSpeed="max" from="996164515" to="972921371"/>
    <trip id="truck119" type="truck_truck" depart="217.81" departLane="best" from="-207613391#0" to="-216980042#0"/>
    <trip id="truck120" type="truck_truck" depart="219.64" departLane="best" from="233692704#9" to="502705642#2"/>
    <trip id="truck121" type="truck_truck" depart="221.47" departLane="best" from="-400807655#1" to="400809387#5"/>
    <trip id="truck122" type="truck_truck" depart="223.30" departLane="best" from="-487965668#4" to="-207631119#5"/>
    <trip id="truck123" type="truck_truck" depart="225.13" departLane="best" from="-397992455#2" to="216982405#1"/>
    <trip id="truck124" type="truck_truck" depart="226.96" departLane="best" from="-207628692#2" to="949340122#2"/>
    <trip id="truck125" type="truck_truck" depart="228.79" departLane="best" from="216969139#2" to="186412743#9"/>
    <trip id="truck126" type="truck_truck" depart="230.62" departLane="best" from="-233763138#6" to="-233763138#0"/>
    <trip id="truck127" type="truck_truck" depart="232.46" departLane="best" from="-216970157#6" to="732210974#1"/>
    <trip id="truck128" type="truck_truck" depart="234.29" departLane="best" from="207628299#1" to="-207626479#2"/>
    <trip id="truck129" type="truck_truck" depart="236.12" departLane="best" from="-207626475#1" to="-207617087#6"/>
    <trip id="truck130" type="truck_truck" depart="237.95" departLane="best" from="216982399#0" to="-216970162#8"/>
    <trip id="truck132" type="truck_truck" depart="241.61" departLane="best" from="188589326#16" to="-487965670#1"/>
    <trip id="truck133" type="truck_truck" depart="243.44" departLane="best" from="400227124#6" to="-207617385#0"/>
    <trip id="truck135" type="truck_truck" depart="247.10" departLane="best" departSpeed="max" from="-1004514777" to="233692706#9"/>
    <trip id="truck137" type="truck_truck" depart="250.76" departLane="best" from="216984733#3" to="-207617087#22"/>
    <trip id="truck138" type="truck_truck" depart="252.59" departLane="best" departSpeed="max" from="-949272579#1" to="-188508701"/>
    <trip id="truck139" type="truck_truck" depart="254.42" departLane="best" from="-207613391#12" to="401028227"/>
    <trip id="truck140" type="truck_truck" depart="256.25" departLane="best" from="399990507" to="207626479#18"/>
    <trip id="truck141" type="truck_truck" depart="258.08" departLane="best" from="400409949#6" to="-487965667#3"/>
    <trip id="truck142" type="truck_truck" depart="259.91" departLane="best" from="233760094#1" to="400747893#3"/>
    <trip id="truck143" type="truck_truck" depart="261.74" departLane="best" from="401239540#8" to="-216980036#0"/>
    <trip id="truck144" type="truck_truck" depart="263.57" departLane="best" from="-216984755#0" to="207626475#2"/>
    <trip id="truck145" type="truck_truck" depart="265.40" departLane="best" departSpeed="max" from="-732211000" to="-207629917#2"/>
    <trip id="truck146" type="truck_truck" depart="267.23" departLane="best" from="-207629480#0" to="491327503#5"/>
    <trip id="truck147" type="truck_truck" depart="269.06" departLane="best" from="-400413273#1" to="949054680"/>
    <trip id="truck148" type="truck_truck" depart="270.89" departLane="best" from="233763130#2" to="401028224"/>
    <trip id="truck149" type="truck_truck" depart="272.72" departLane="best" from="-188589326#3" to="216984742#3"/>
    <trip id="truck150" type="truck_truck" depart="274.55" departLane="best" departSpeed="max" from="-400751431" to="491327503#7"/>
    <trip id="truck151" type="truck_truck" depart="276.38" departLane="best" from="233760097#7" to="400747895#2"/>
    <trip id="truck152" type="truck_truck" depart="278.21" departLane="best" from="233763130#2" to="-216984759#0"/>
    <trip id="truck154" type="truck_truck" depart="281.87" departLane="best" from="400527279#2" to="400747893#0"/>
    <trip id="truck155" type="truck_truck" depart="283.71" departLane="best" from="-216984720#4" to="399990514#1"/>
    <trip id="truck156" type="truck_truck" depart="285.54" departLane="best" from="-186412743#15" to="-233779979#1"/>
    <trip id="truck157" type="truck_truck" depart="287.37" departLane="best" from="233760092" to="-216982394#0"/>
    <trip id="truck158" type="truck_truck" depart="289.20" departLane="best" from="188589326#15" to="-216970157#1"/>
    <trip id="truck160" type="truck_truck" depart="292.86" departLane="best" from="932534547#0" to="207613391#0"/>
    <trip id="truck161" type="truck_truck" depart="294.69" departLane="best" from="491327503#14" to="207626479#17"/>
    <trip id="truck162" type="truck_truck" depart="296.52" departLane="best" from="911207327#0" to="-216965792#0"/>
    <trip id="truck163" type="truck_truck" depart="298.35" departLane="best" from="910776137#1" to="-216984755#3"/>
    <trip id="truck164" type="truck_truck" depart="300.18" departLane="best" from="-207626475#5" to="-949270610"/>
    <trip id="truck165" type="truck_truck" depart="302.01" departLane="best" from="216984716#7" to="-397936211#0"/>
    <trip id="truck166" type="truck_truck" depart="303.84" departLane="best" from="-491323087#3" to="207626479#1"/>
    <trip id="truck167" type="truck_truck" depart="305.67" departLane="best" from="-224390568" to="216984716#11"/>
    <trip id="truck168" type="truck_truck" depart="307.50" departLane="best" departSpeed="max" from="-1004514776" to="491327450"/>
    <trip id="truck169" type="truck_truck" depart="309.33" departLane="best" from="207613391#0" to="216984728"/>
    <trip id="truck170" type="truck_truck" depart="311.16" departLane="best" from="216984736#0" to="216980038"/>
    <trip id="truck171" type="truck_truck" depart="312.99" departLane="best" from="-487965667#11" to="-207613388#3"/>
    <trip id="truck172" type="truck_truck" depart="314.82" departLane="best" from="216970159#0" to="400413273#0"/>
    <trip id="truck173" type="truck_truck" depart="316.65" departLane="best" departSpeed="max" from="216982401" to="-233763138#0"/>
    <trip id="truck174" type="truck_truck" depart="318.48" departLane="best" from="-400409949#8" to="732210974#0"/>
    <trip id="truck176" type="truck_truck" depart="322.14" departLane="best" from="-207626987#5" to="-910697485"/>
    <trip id="truck177" type="truck_truck" depart="323.97" departLane="best" from="-491327503#4" to="216980714#1"/>
    <trip id="truck178" type="truck_truck" depart="325.80" departLane="best" departSpeed="max" from="474831620#0" to="207629479#2"/>
    <trip id="truck179" type="truck_truck" depart="327.63" departLane="best" from="-399990514#0" to="-207617087#14"/>
    <trip id="truck180" type="truck_truck" depart="329.46" departLane="best" departSpeed="max" from="-1004514776" to="-233692706#3"/>
    <trip id="truck181" type="truck_truck" depart="331.29" departLane="best" departSpeed="max" from="-949276762" to="207626479#16"/>
    <trip id="truck182" type="truck_truck" depart="333.12" departLane="best" from="216969139#4" to="186412743#15"/>
    <trip id="truck183" type="truck_truck" depart="334.96" departLane="best" from="186410875#11" to="-216980042#0"/>
    <trip id="truck184" type="truck_truck" depart="336.79" departLane="best" from="188546078#3" to="487965667#8"/>
    <trip id="truck185" type="truck_truck" depart="338.62" departLane="best" from="233760094#0" to="-216965788#1"/>
    <trip id="truck186" type="truck_truck" depart="340.45" departLane="best" from="-207617087#12" to="207607925#9"/>
    <trip id="truck187" type="truck_truck" depart="342.28" departLane="best" from="207632321#3" to="400527278#1"/>
    <trip id="truck188" type="truck_truck" depart="344.11" departLane="best" departSpeed="max" from="233779979#0" to="224390568"/>
    <trip id="truck189" type="truck_truck" depart="345.94" departLane="best" from="216970163" to="-216981398#0"/>
    <trip id="truck190" type="truck_truck" depart="347.77" departLane="best" from="-216980038" to="-188589326#12"/>
    <trip id="truck191" type="truck_truck" depart="349.60" departLane="best" departSpeed="max" from="-216984744#7" to="188546427#1"/>
    <trip id="truck192" type="truck_truck" depart="351.43" departLane="best" from="400237753" to="207613389"/>
    <trip id="truck193" type="truck_truck" depart="353.26" departLane="best" from="-216970164#1" to="216981398#0"/>
    <trip id="truck194" type="truck_truck" depart="355.09" departLane="best" departSpeed="max" from="188589333#0" to="-216984723#0"/>
    <trip id="truck195" type="truck_truck" depart="356.92" departLane="best" departSpeed="max" from="216970154#0" to="186412743#3"/>
    <trip id="truck197" type="truck_truck" depart="360.58" departLane="best" from="-216984753" to="400525822#1"/>
    <trip id="truck198" type="truck_truck" depart="362.41" departLane="best" from="186411801#9" to="-233779979#2"/>
    <trip id="truck199" type="truck_truck" depart="364.24" departLane="best" departSpeed="max" from="207628299#0" to="733129148"/>
    <trip id="truck200" type="truck_truck" depart="366.07" departLane="best" from="400809387#8" to="207628692#5"/>
    <trip id="truck201" type="truck_truck" depart="367.90" departLane="best" departSpeed="max" from="216982401" to="207607914#2"/>
    <trip id="truck202" type="truck_truck" depart="369.73" departLane="best" departSpeed="max" from="397936211#0" to="-207617087#14"/>
    <trip id="truck203" type="truck_truck" depart="371.56" departLane="best" from="401239540#4" to="216984746#4"/>
    <trip id="truck204" type="truck_truck" depart="373.39" departLane="best" from="188546083" to="-216984744#2"/>
    <trip id="truck205" type="truck_truck" depart="375.22" departLane="best" from="216984759#3" to="207609920#1"/>
    <trip id="truck206" type="truck_truck" depart="377.05" departLane="best" from="-207631121#2" to="-233692704#14"/>
    <trip id="truck207" type="truck_truck" depart="378.88" departLane="best" from="-233692706#21" to="399990514#0"/>
    <trip id="truck208" type="truck_truck" depart="380.71" departLane="best" from="216984736#14" to="216981396#0"/>
    <trip id="truck209" type="truck_truck" depart="382.54" departLane="best" from="216981395#4" to="-207613388#1"/>
    <trip id="truck210" type="truck_truck" depart="384.37" departLane="best" departSpeed="max" from="-732211000" to="207617086#0"/>
    <trip id="truck211" type="truck_truck" depart="386.21" departLane="best" from="911207327#1" to="216970813#2"/>
    <trip id="truck212" type="truck_truck" depart="388.04" departLane="best" from="918563261" to="-487965669#2"/>
    <trip id="truck213" type="truck_truck" depart="389.87" departLane="best" from="207626987#0" to="216981396#4"/>
    <trip id="truck214" type="truck_truck" depart="391.70" departLane="best" from="400409950#4" to="-233692706#17"/>
    <trip id="truck215" type="truck_truck" depart="393.53" departLane="best" from="-491323084#2" to="-186412743#4"/>
    <trip id="truck216" type="truck_truck" depart="395.36" departLane="best" from="401239540#3" to="233692704#13"/>
    <trip id="truck217" type="truck_truck" depart="397.19" departLane="best" from="400409949#4" to="910776136"/>
    <trip id="truck218" type="truck_truck" depart="399.02" departLane="best" from="-917725346" to="216984757"/>
    <trip id="truck219" type="truck_truck" depart="400.85" departLane="best" from="-216982406" to="-216980713"/>
    <trip id="truck220" type="truck_truck" depart="402.68" departLane="best" departSpeed="max" from="-972921371" to="-188589326#8"/>
    <trip id="truck221" type="truck_truck" depart="404.51" departLane="best" from="-400807655#2" to="216980718#0"/>
    <trip id="truck222" type="truck_truck" depart="406.34" departLane="best" from="732210983#2" to="-207632318#1"/>
    <trip id="truck223" type="truck_truck" depart="408.17" departLane="best" departSpeed="max" from="188508707" to="-207626989#6"/>
    <trip id="truck224" type="truck_truck" depart="410.00" departLane="best" from="207631119#3" to="-188589326#3"/>
    <trip id="truck225" type="truck_truck" depart="411.83" departLane="best" from="-491327503#7" to="207617385#5"/>
    <trip id="truck226" type="truck_truck" depart="413.66" departLane="best" from="188589326#9" to="216965792#2"/>
    <trip id="truck227" type="truck_truck" depart="415.49" departLane="best" from="-207628299#13" to="186412743#0"/>
    <trip id="truck228" type="truck_truck" depart="417.32" departLane="best" from="-207607925#12" to="-487965668#4"/>
    <trip id="truck229" type="truck_truck" depart="419.15" departLane="best" from="-216981398#4" to="400409952#1"/>
    <trip id="truck230" type="truck_truck" depart="420.98" departLane="best" from="-216984755#2" to="487965668#4"/>
    <trip id="truck231" type="truck_truck" depart="422.81" departLane="best" departSpeed="max" from="216984744#0" to="400237752"/>
    <trip id="truck232" type="truck_truck" depart="424.64" departLane="best" from="-188589322#5" to="207613391#16"/>
    <trip id="truck233" type="truck_truck" depart="426.47" departLane="best" departSpeed="max" from="996164515" to="-400809387#0"/>
    <trip id="truck234" type="truck_truck" depart="428.30" departLane="best" from="216969137#0" to="233760091#1"/>
    <trip id="truck235" type="truck_truck" depart="430.13" departLane="best" from="216969137#3" to="-233692704#15"/>
    <trip id="truck236" type="truck_truck" depart="431.96" departLane="best" from="732210983#2" to="-216970162#0"/>
    <trip id="truck237" type="truck_truck" depart="433.79" departLane="best" from="188589326#0" to="-207629917#0"/>
    <trip id="truck238" type="truck_truck" depart="435.62" departLane="best" from="207626987#2" to="216970816#3"/>
    <trip id="truck239" type="truck_truck" depart="437.46" departLane="best" from="207617385#4" to="-216980713"/>
    <trip id="truck240" type="truck_truck" depart="439.29" departLane="best" from="216981395#5" to="233692706#2"/>
    <trip id="truck241" type="truck_truck" depart="441.12" departLane="best" from="216984736#6" to="207626479#16"/>
    <trip id="truck242" type="truck_truck" depart="442.95" departLane="best" departSpeed="max" from="233779979#0" to="912245079#0"/>
    <trip id="truck243" type="truck_truck" depart="444.78" departLane="best" departSpeed="max" from="-400413272" to="216980714#1"/>
    <trip id="truck245" type="truck_truck" depart="448.44" departLane="best" departSpeed="max" from="216980713" to="-207631121#4"/>
    <trip id="truck246" type="truck_truck" depart="450.27" departLane="best" from="207617385#5" to="233750313#1"/>
    <trip id="truck247" type="truck_truck" depart="452.10" departLane="best" from="400237755#0" to="207628299#6"/>
    <trip id="truck248" type="truck_truck" depart="453.93" departLane="best" from="207626479#3" to="949340119#1"/>
    <trip id="truck249" type="truck_truck" depart="455.76" departLane="best" departSpeed="max" from="-949272579#1" to="-487965665#0"/>
    <trip id="truck250" type="truck_truck" depart="457.59" departLane="best" departSpeed="max" from="197089668#0" to="-400747894#3"/>
    <trip id="truck252" type="truck_truck" depart="461.25" departLane="best" from="216981395#6" to="-949272579#0"/>
    <trip id="truck253" type="truck_truck" depart="463.08" departLane="best" from="-216984722#0" to="912245079#1"/>