<?xml version="1.0" encoding="UTF-8"?>

<!-- generated on 2024-05-10 10:19:02.087239 by osmWebWizard.py v1_19_0+0000-baa66a0f364
<configuration>
    <net-file value="F:\SUMO\OptimalEmission-SUMO-ReinforcementLearning\2024-05-10-10-18-56\osm.net.xml.gz"/>
    <output-trip-file value="F:\SUMO\OptimalEmission-SUMO-ReinforcementLearning\2024-05-10-10-18-56\osm.passenger.trips.xml"/>
    <route-file value="F:\SUMO\OptimalEmission-SUMO-ReinforcementLearning\2024-05-10-10-18-56\osm.passenger.rou.xml"/>
    <prefix value="veh"/>
    <trip-attributes value="departLane=&quot;best&quot;"/>
    <fringe-start-attributes value="departSpeed=&quot;max&quot;"/>
    <vehicle-class value="passenger"/>
    <lanes value="True"/>
    <fringe-factor value="50"/>
    <allow-fringe.min-length value="1000.0"/>
    <via-edge-types value="highway.motorway,highway.motorway_link,highway.trunk_link,highway.primary_link,highway.secondary_link,highway.tertiary_link"/>
    <min-distance value="300.0"/>
    <min-distance.fringe value="10.0"/>
    <remove-loops value="True"/>
    <validate value="True"/>
    <end value="60000.0"/>
    <insertion-density value="12.0"/>
</configuration>
-->

<!-- generated on 2024-05-10 10:19:01 by Eclipse SUMO duarouter Version 1.19.0
<configuration xmlns:xsi="http://www.w3.org/2001/XMLSchema-instance" xsi:noNamespaceSchemaLocation="http://sumo.dlr.de/xsd/duarouterConfiguration.xsd">

    <input>
        <net-file value="F:\SUMO\OptimalEmission-SUMO-ReinforcementLearning\2024-05-10-10-18-56\osm.net.xml.gz"/>
        <route-files value="F:\SUMO\OptimalEmission-SUMO-ReinforcementLearning\2024-05-10-10-18-56\osm.passenger.trips.xml"/>
    </input>

    <output>
        <output-file value="F:\SUMO\OptimalEmission-SUMO-ReinforcementLearning\2024-05-10-10-18-56\osm.passenger.trips.xml.tmp"/>
        <alternatives-output value="NUL"/>
        <write-trips value="true"/>
    </output>

    <processing>
        <remove-loops value="true"/>
    </processing>

    <time>
        <begin value="0.0"/>
        <end value="60000.0"/>
    </time>

    <report>
        <no-warnings value="true"/>
        <ignore-errors value="true"/>
        <no-step-log value="true"/>
    </report>

</configuration>
-->

<routes xmlns:xsi="http://www.w3.org/2001/XMLSchema-instance" xsi:noNamespaceSchemaLocation="http://sumo.dlr.de/xsd/routes_file.xsd">
    <vType id="veh_passenger" vClass="passenger"/>
    <trip id="veh0" type="veh_passenger" depart="0.00" departLane="best" departSpeed="max" from="270367418" to="270367418"/>
    <trip id="veh1" type="veh_passenger" depart="13.58" departLane="best" departSpeed="max" from="68543285" to="68543285"/>
    <trip id="veh2" type="veh_passenger" depart="27.15" departLane="best" departSpeed="max" from="270367418" to="270367418"/>
    <trip id="veh3" type="veh_passenger" depart="40.73" departLane="best" departSpeed="max" from="270367418" to="270367418"/>
    <trip id="veh4" type="veh_passenger" depart="54.31" departLane="best" departSpeed="max" from="68543285" to="68543285"/>
    <trip id="veh5" type="veh_passenger" depart="67.89" departLane="best" departSpeed="max" from="68543285" to="68543285"/>
    <trip id="veh6" type="veh_passenger" depart="81.46" departLane="best" departSpeed="max" from="270367418" to="270367418"/>
    <trip id="veh7" type="veh_passenger" depart="95.04" departLane="best" departSpeed="max" from="270367418" to="270367418"/>
    <trip id="veh8" type="veh_passenger" depart="108.62" departLane="best" departSpeed="max" from="68543285" to="68543285"/>
    <trip id="veh9" type="veh_passenger" depart="122.20" departLane="best" departSpeed="max" from="68543285" to="68543285"/>
    <trip id="veh10" type="veh_passenger" depart="135.77" departLane="best" departSpeed="max" from="68543285" to="68543285"/>
    <trip id="veh11" type="veh_passenger" depart="149.35" departLane="best" departSpeed="max" from="68543285" to="68543285"/>
    <trip id="veh12" type="veh_passenger" depart="162.93" departLane="best" departSpeed="max" from="68543285" to="68543285"/>
    <trip id="veh13" type="veh_passenger" depart="176.50" departLane="best" departSpeed="max" from="270367418" to="270367418"/>
    <trip id="veh14" type="veh_passenger" depart="190.08" departLane="best" departSpeed="max" from="270367418" to="270367418"/>
    <trip id="veh15" type="veh_passenger" depart="203.66" departLane="best" departSpeed="max" from="270367418" to="270367418"/>
    <trip id="veh16" type="veh_passenger" depart="217.24" departLane="best" departSpeed="max" from="270367418" to="270367418"/>
    <trip id="veh17" type="veh_passenger" depart="230.81" departLane="best" departSpeed="max" from="68543285" to="68543285"/>
    <trip id="veh18" type="veh_passenger" depart="244.39" departLane="best" departSpeed="max" from="270367418" to="270367418"/>
    <trip id="veh19" type="veh_passenger" depart="257.97" departLane="best" departSpeed="max" from="68543285" to="68543285"/>
    <trip id="veh20" type="veh_passenger" depart="271.54" departLane="best" departSpeed="max" from="68543285" to="68543285"/>
    <trip id="veh21" type="veh_passenger" depart="285.12" departLane="best" departSpeed="max" from="68543285" to="68543285"/>
    <trip id="veh22" type="veh_passenger" depart="298.70" departLane="best" departSpeed="max" from="270367418" to="270367418"/>
    <trip id="veh23" type="veh_passenger" depart="312.28" departLane="best" departSpeed="max" from="270367418" to="270367418"/>
    <trip id="veh24" type="veh_passenger" depart="325.85" departLane="best" departSpeed="max" from="270367418" to="270367418"/>
    <trip id="veh25" type="veh_passenger" depart="339.43" departLane="best" departSpeed="max" from="68543285" to="68543285"/>
    <trip id="veh26" type="veh_passenger" depart="353.01" departLane="best" departSpeed="max" from="270367418" to="270367418"/>
    <trip id="veh27" type="veh_passenger" depart="366.59" departLane="best" departSpeed="max" from="68543285" to="68543285"/>
    <trip id="veh28" type="veh_passenger" depart="380.16" departLane="best" departSpeed="max" from="270367418" to="270367418"/>
    <trip id="veh29" type="veh_passenger" depart="393.74" departLane="best" departSpeed="max" from="270367418" to="270367418"/>
    <trip id="veh30" type="veh_passenger" depart="407.32" departLane="best" departSpeed="max" from="68543285" to="68543285"/>
    <trip id="veh31" type="veh_passenger" depart="420.89" departLane="best" departSpeed="max" from="68543285" to="68543285"/>
    <trip id="veh32" type="veh_passenger" depart="434.47" departLane="best" departSpeed="max" from="68543285" to="68543285"/>
    <trip id="veh33" type="veh_passenger" depart="448.05" departLane="best" departSpeed="max" from="270367418" to="270367418"/>
    <trip id="veh34" type="veh_passenger" depart="461.63" departLane="best" departSpeed="max" from="68543285" to="68543285"/>
    <trip id="veh35" type="veh_passenger" depart="475.20" departLane="best" departSpeed="max" from="68543285" to="68543285"/>
    <trip id="veh36" type="veh_passenger" depart="488.78" departLane="best" departSpeed="max" from="68543285" to="68543285"/>
    <trip id="veh37" type="veh_passenger" depart="502.36" departLane="best" departSpeed="max" from="270367418" to="270367418"/>
    <trip id="veh38" type="veh_passenger" depart="515.93" departLane="best" departSpeed="max" from="68543285" to="68543285"/>
    <trip id="veh39" type="veh_passenger" depart="529.51" departLane="best" departSpeed="max" from="270367418" to="270367418"/>
    <trip id="veh40" type="veh_passenger" depart="543.09" departLane="best" departSpeed="max" from="68543285" to="68543285"/>
    <trip id="veh41" type="veh_passenger" depart="556.67" departLane="best" departSpeed="max" from="270367418" to="270367418"/>
    <trip id="veh42" type="veh_passenger" depart="570.24" departLane="best" departSpeed="max" from="270367418" to="270367418"/>
    <trip id="veh43" type="veh_passenger" depart="583.82" departLane="best" departSpeed="max" from="68543285" to="68543285"/>
    <trip id="veh44" type="veh_passenger" depart="597.40" departLane="best" departSpeed="max" from="270367418" to="270367418"/>
    <trip id="veh45" type="veh_passenger" depart="610.98" departLane="best" departSpeed="max" from="68543285" to="68543285"/>
    <trip id="veh46" type="veh_passenger" depart="624.55" departLane="best" departSpeed="max" from="270367418" to="270367418"/>
    <trip id="veh47" type="veh_passenger" depart="638.13" departLane="best" departSpeed="max" from="270367418" to="270367418"/>
    <trip id="veh48" type="veh_passenger" depart="651.71" departLane="best" departSpeed="max" from="270367418" to="270367418"/>
    <trip id="veh49" type="veh_passenger" depart="665.28" departLane="best" departSpeed="max" from="68543285" to="68543285"/>
    <trip id="veh50" type="veh_passenger" depart="678.86" departLane="best" departSpeed="max" from="270367418" to="270367418"/>
    <trip id="veh51" type="veh_passenger" depart="692.44" departLane="best" departSpeed="max" from="270367418" to="270367418"/>
    <trip id="veh52" type="veh_passenger" depart="706.02" departLane="best" departSpeed="max" from="68543285" to="68543285"/>
    <trip id="veh53" type="veh_passenger" depart="719.59" departLane="best" departSpeed="max" from="270367418" to="270367418"/>
    <trip id="veh54" type="veh_passenger" depart="733.17" departLane="best" departSpeed="max" from="270367418" to="270367418"/>
    <trip id="veh55" type="veh_passenger" depart="746.75" departLane="best" departSpeed="max" from="270367418" to="270367418"/>
    <trip id="veh56" type="veh_passenger" depart="760.33" departLane="best" departSpeed="max" from="68543285" to="68543285"/>
    <trip id="veh57" type="veh_passenger" depart="773.90" departLane="best" departSpeed="max" from="68543285" to="68543285"/>
    <trip id="veh58" type="veh_passenger" depart="787.48" departLane="best" departSpeed="max" from="270367418" to="270367418"/>
    <trip id="veh59" type="veh_passenger" depart="801.06" departLane="best" departSpeed="max" from="270367418" to="270367418"/>
    <trip id="veh60" type="veh_passenger" depart="814.63" departLane="best" departSpeed="max" from="270367418" to="270367418"/>
    <trip id="veh61" type="veh_passenger" depart="828.21" departLane="best" departSpeed="max" from="68543285" to="68543285"/>
    <trip id="veh62" type="veh_passenger" depart="841.79" departLane="best" departSpeed="max" from="68543285" to="68543285"/>
    <trip id="veh63" type="veh_passenger" depart="855.37" departLane="best" departSpeed="max" from="270367418" to="270367418"/>
    <trip id="veh64" type="veh_passenger" depart="868.94" departLane="best" departSpeed="max" from="68543285" to="68543285"/>
    <trip id="veh65" type="veh_passenger" depart="882.52" departLane="best" departSpeed="max" from="68543285" to="68543285"/>
    <trip id="veh66" type="veh_passenger" depart="896.10" departLane="best" departSpeed="max" from="68543285" to="68543285"/>
    <trip id="veh67" type="veh_passenger" depart="909.67" departLane="best" departSpeed="max" from="270367418" to="270367418"/>
    <trip id="veh68" type="veh_passenger" depart="923.25" departLane="best" departSpeed="max" from="68543285" to="68543285"/>
    <trip id="veh69" type="veh_passenger" depart="936.83" departLane="best" departSpeed="max" from="270367418" to="270367418"/>
    <trip id="veh70" type="veh_passenger" depart="950.41" departLane="best" departSpeed="max" from="68543285" to="68543285"/>
    <trip id="veh71" type="veh_passenger" depart="963.98" departLane="best" departSpeed="max" from="68543285" to="68543285"/>
    <trip id="veh72" type="veh_passenger" depart="977.56" departLane="best" departSpeed="max" from="270367418" to="270367418"/>
    <trip id="veh73" type="veh_passenger" depart="991.14" departLane="best" departSpeed="max" from="270367418" to="270367418"/>
    <trip id="veh74" type="veh_passenger" depart="1004.72" departLane="best" departSpeed="max" from="68543285" to="68543285"/>
    <trip id="veh75" type="veh_passenger" depart="1018.29" departLane="best" departSpeed="max" from="270367418" to="270367418"/>
    <trip id="veh76" type="veh_passenger" depart="1031.87" departLane="best" departSpeed="max" from="68543285" to="68543285"/>
    <trip id="veh77" type="veh_passenger" depart="1045.45" departLane="best" departSpeed="max" from="270367418" to="270367418"/>
    <trip id="veh78" type="veh_passenger" depart="1059.02" departLane="best" departSpeed="max" from="68543285" to="68543285"/>
    <trip id="veh79" type="veh_passenger" depart="1072.60" departLane="best" departSpeed="max" from="68543285" to="68543285"/>
    <trip id="veh80" type="veh_passenger" depart="1086.18" departLane="best" departSpeed="max" from="68543285" to="68543285"/>
    <trip id="veh81" type="veh_passenger" depart="1099.76" departLane="best" departSpeed="max" from="270367418" to="270367418"/>
    <trip id="veh82" type="veh_passenger" depart="1113.33" departLane="best" departSpeed="max" from="270367418" to="270367418"/>
    <trip id="veh83" type="veh_passenger" depart="1126.91" departLane="best" departSpeed="max" from="68543285" to="68543285"/>
    <trip id="veh84" type="veh_passenger" depart="1140.49" departLane="best" departSpeed="max" from="270367418" to="270367418"/>
    <trip id="veh85" type="veh_passenger" depart="1154.06" departLane="best" departSpeed="max" from="68543285" to="68543285"/>
    <trip id="veh86" type="veh_passenger" depart="1167.64" departLane="best" departSpeed="max" from="68543285" to="68543285"/>
    <trip id="veh87" type="veh_passenger" depart="1181.22" departLane="best" departSpeed="max" from="270367418" to="270367418"/>
    <trip id="veh88" type="veh_passenger" depart="1194.80" departLane="best" departSpeed="max" from="68543285" to="68543285"/>
    <trip id="veh89" type="veh_passenger" depart="1208.37" departLane="best" departSpeed="max" from="270367418" to="270367418"/>
    <trip id="veh90" type="veh_passenger" depart="1221.95" departLane="best" departSpeed="max" from="68543285" to="68543285"/>
    <trip id="veh91" type="veh_passenger" depart="1235.53" departLane="best" departSpeed="max" from="68543285" to="68543285"/>
    <trip id="veh92" type="veh_passenger" depart="1249.11" departLane="best" departSpeed="max" from="68543285" to="68543285"/>
    <trip id="veh93" type="veh_passenger" depart="1262.68" departLane="best" departSpeed="max" from="68543285" to="68543285"/>
    <trip id="veh94" type="veh_passenger" depart="1276.26" departLane="best" departSpeed="max" from="68543285" to="68543285"/>
    <trip id="veh95" type="veh_passenger" depart="1289.84" departLane="best" departSpeed="max" from="270367418" to="270367418"/>
    <trip id="veh96" type="veh_passenger" depart="1303.41" departLane="best" departSpeed="max" from="270367418" to="270367418"/>
    <trip id="veh97" type="veh_passenger" depart="1316.99" departLane="best" departSpeed="max" from="68543285" to="68543285"/>
    <trip id="veh98" type="veh_passenger" depart="1330.57" departLane="best" departSpeed="max" from="270367418" to="270367418"/>
    <trip id="veh99" type="veh_passenger" depart="1344.15" departLane="best" departSpeed="max" from="68543285" to="68543285"/>
    <trip id="veh100" type="veh_passenger" depart="1357.72" departLane="best" departSpeed="max" from="68543285" to="68543285"/>
    <trip id="veh101" type="veh_passenger" depart="1371.30" departLane="best" departSpeed="max" from="68543285" to="68543285"/>
    <trip id="veh102" type="veh_passenger" depart="1384.88" departLane="best" departSpeed="max" from="270367418" to="270367418"/>
    <trip id="veh103" type="veh_passenger" depart="1398.46" departLane="best" departSpeed="max" from="270367418" to="270367418"/>
    <trip id="veh104" type="veh_passenger" depart="1412.03" departLane="best" departSpeed="max" from="270367418" to="270367418"/>
    <trip id="veh105" type="veh_passenger" depart="1425.61" departLane="best" departSpeed="max" from="270367418" to="270367418"/>
    <trip id="veh106" type="veh_passenger" depart="1439.19" departLane="best" departSpeed="max" from="68543285" to="68543285"/>
    <trip id="veh107" type="veh_passenger" depart="1452.76" departLane="best" departSpeed="max" from="68543285" to="68543285"/>
    <trip id="veh108" type="veh_passenger" depart="1466.34" departLane="best" departSpeed="max" from="270367418" to="270367418"/>
    <trip id="veh109" type="veh_passenger" depart="1479.92" departLane="best" departSpeed="max" from="270367418" to="270367418"/>
    <trip id="veh110" type="veh_passenger" depart="1493.50" departLane="best" departSpeed="max" from="68543285" to="68543285"/>
    <trip id="veh111" type="veh_passenger" depart="1507.07" departLane="best" departSpeed="max" from="270367418" to="270367418"/>
    <trip id="veh112" type="veh_passenger" depart="1520.65" departLane="best" departSpeed="max" from="270367418" to="270367418"/>
    <trip id="veh113" type="veh_passenger" depart="1534.23" departLane="best" departSpeed="max" from="270367418" to="270367418"/>
    <trip id="veh114" type="veh_passenger" depart="1547.80" departLane="best" departSpeed="max" from="68543285" to="68543285"/>
    <trip id="veh115" type="veh_passenger" depart="1561.38" departLane="best" departSpeed="max" from="270367418" to="270367418"/>
    <trip id="veh116" type="veh_passenger" depart="1574.96" departLane="best" departSpeed="max" from="68543285" to="68543285"/>
    <trip id="veh117" type="veh_passenger" depart="1588.54" departLane="best" departSpeed="max" from="68543285" to="68543285"/>
    <trip id="veh118" type="veh_passenger" depart="1602.11" departLane="best" departSpeed="max" from="68543285" to="68543285"/>
    <trip id="veh119" type="veh_passenger" depart="1615.69" departLane="best" departSpeed="max" from="68543285" to="68543285"/>
    <trip id="veh120" type="veh_passenger" depart="1629.27" departLane="best" departSpeed="max" from="68543285" to="68543285"/>
    <trip id="veh121" type="veh_passenger" depart="1642.85" departLane="best" departSpeed="max" from="68543285" to="68543285"/>
    <trip id="veh122" type="veh_passenger" depart="1656.42" departLane="best" departSpeed="max" from="270367418" to="270367418"/>
    <trip id="veh123" type="veh_passenger" depart="1670.00" departLane="best" departSpeed="max" from="68543285" to="68543285"/>
    <trip id="veh124" type="veh_passenger" depart="1683.58" departLane="best" departSpeed="max" from="270367418" to="270367418"/>
    <trip id="veh125" type="veh_passenger" depart="1697.15" departLane="best" departSpeed="max" from="270367418" to="270367418"/>
    <trip id="veh126" type="veh_passenger" depart="1710.73" departLane="best" departSpeed="max" from="270367418" to="270367418"/>
    <trip id="veh127" type="veh_passenger" depart="1724.31" departLane="best" departSpeed="max" from="68543285" to="68543285"/>
    <trip id="veh128" type="veh_passenger" depart="1737.89" departLane="best" departSpeed="max" from="68543285" to="68543285"/>
    <trip id="veh129" type="veh_passenger" depart="1751.46" departLane="best" departSpeed="max" from="270367418" to="270367418"/>
    <trip id="veh130" type="veh_passenger" depart="1765.04" departLane="best" departSpeed="max" from="68543285" to="68543285"/>
    <trip id="veh131" type="veh_passenger" depart="1778.62" departLane="best" departSpeed="max" from="68543285" to="68543285"/>
    <trip id="veh132" type="veh_passenger" depart="1792.19" departLane="best" departSpeed="max" from="270367418" to="270367418"/>
    <trip id="veh133" type="veh_passenger" depart="1805.77" departLane="best" departSpeed="max" from="270367418" to="270367418"/>
    <trip id="veh134" type="veh_passenger" depart="1819.35" departLane="best" departSpeed="max" from="270367418" to="270367418"/>
    <trip id="veh135" type="veh_passenger" depart="1832.93" departLane="best" departSpeed="max" from="270367418" to="270367418"/>
    <trip id="veh136" type="veh_passenger" depart="1846.50" departLane="best" departSpeed="max" from="270367418" to="270367418"/>
    <trip id="veh137" type="veh_passenger" depart="1860.08" departLane="best" departSpeed="max" from="270367418" to="270367418"/>
    <trip id="veh138" type="veh_passenger" depart="1873.66" departLane="best" departSpeed="max" from="270367418" to="270367418"/>
    <trip id="veh139" type="veh_passenger" depart="1887.24" departLane="best" departSpeed="max" from="68543285" to="68543285"/>
    <trip id="veh140" type="veh_passenger" depart="1900.81" departLane="best" departSpeed="max" from="270367418" to="270367418"/>
    <trip id="veh141" type="veh_passenger" depart="1914.39" departLane="best" departSpeed="max" from="68543285" to="68543285"/>
    <trip id="veh142" type="veh_passenger" depart="1927.97" departLane="best" departSpeed="max" from="68543285" to="68543285"/>
    <trip id="veh143" type="veh_passenger" depart="1941.54" departLane="best" departSpeed="max" from="270367418" to="270367418"/>
    <trip id="veh144" type="veh_passenger" depart="1955.12" departLane="best" departSpeed="max" from="68543285" to="68543285"/>
    <trip id="veh145" type="veh_passenger" depart="1968.70" departLane="best" departSpeed="max" from="68543285" to="68543285"/>
    <trip id="veh146" type="veh_passenger" depart="1982.28" departLane="best" departSpeed="max" from="270367418" to="270367418"/>
    <trip id="veh147" type="veh_passenger" depart="1995.85" departLane="best" departSpeed="max" from="68543285" to="68543285"/>
    <trip id="veh148" type="veh_passenger" depart="2009.43" departLane="best" departSpeed="max" from="68543285" to="68543285"/>
    <trip id="veh149" type="veh_passenger" depart="2023.01" departLane="best" departSpeed="max" from="270367418" to="270367418"/>
    <trip id="veh150" type="veh_passenger" depart="2036.59" departLane="best" departSpeed="max" from="68543285" to="68543285"/>
    <trip id="veh151" type="veh_passenger" depart="2050.16" departLane="best" departSpeed="max" from="68543285" to="68543285"/>
    <trip id="veh152" type="veh_passenger" depart="2063.74" departLane="best" departSpeed="max" from="68543285" to="68543285"/>
    <trip id="veh153" type="veh_passenger" depart="2077.32" departLane="best" departSpeed="max" from="270367418" to="270367418"/>
    <trip id="veh154" type="veh_passenger" depart="2090.89" departLane="best" departSpeed="max" from="68543285" to="68543285"/>
    <trip id="veh155" type="veh_passenger" depart="2104.47" departLane="best" departSpeed="max" from="270367418" to="270367418"/>
    <trip id="veh156" type="veh_passenger" depart="2118.05" departLane="best" departSpeed="max" from="270367418" to="270367418"/>
    <trip id="veh157" type="veh_passenger" depart="2131.63" departLane="best" departSpeed="max" from="270367418" to="270367418"/>
    <trip id="veh158" type="veh_passenger" depart="2145.20" departLane="best" departSpeed="max" from="68543285" to="68543285"/>
    <trip id="veh159" type="veh_passenger" depart="2158.78" departLane="best" departSpeed="max" from="270367418" to="270367418"/>
    <trip id="veh160" type="veh_passenger" depart="2172.36" departLane="best" departSpeed="max" from="68543285" to="68543285"/>
    <trip id="veh161" type="veh_passenger" depart="2185.93" departLane="best" departSpeed="max" from="270367418" to="270367418"/>
    <trip id="veh162" type="veh_passenger" depart="2199.51" departLane="best" departSpeed="max" from="270367418" to="270367418"/>
    <trip id="veh163" type="veh_passenger" depart="2213.09" departLane="best" departSpeed="max" from="270367418" to="270367418"/>
    <trip id="veh164" type="veh_passenger" depart="2226.67" departLane="best" departSpeed="max" from="68543285" to="68543285"/>
    <trip id="veh165" type="veh_passenger" depart="2240.24" departLane="best" departSpeed="max" from="68543285" to="68543285"/>
    <trip id="veh166" type="veh_passenger" depart="2253.82" departLane="best" departSpeed="max" from="270367418" to="270367418"/>
    <trip id="veh167" type="veh_passenger" depart="2267.40" departLane="best" departSpeed="max" from="270367418" to="270367418"/>
    <trip id="veh168" type="veh_passenger" depart="2280.98" departLane="best" departSpeed="max" from="270367418" to="270367418"/>
    <trip id="veh169" type="veh_passenger" depart="2294.55" departLane="best" departSpeed="max" from="68543285" to="68543285"/>
    <trip id="veh170" type="veh_passenger" depart="2308.13" departLane="best" departSpeed="max" from="68543285" to="68543285"/>
    <trip id="veh171" type="veh_passenger" depart="2321.71" departLane="best" departSpeed="max" from="68543285" to="68543285"/>
    <trip id="veh172" type="veh_passenger" depart="2335.28" departLane="best" departSpeed="max" from="270367418" to="270367418"/>
    <trip id="veh173" type="veh_passenger" depart="2348.86" departLane="best" departSpeed="max" from="270367418" to="270367418"/>
    <trip id="veh174" type="veh_passenger" depart="2362.44" departLane="best" departSpeed="max" from="270367418" to="270367418"/>
    <trip id="veh175" type="veh_passenger" depart="2376.02" departLane="best" departSpeed="max" from="68543285" to="68543285"/>
    <trip id="veh176" type="veh_passenger" depart="2389.59" departLane="best" departSpeed="max" from="68543285" to="68543285"/>
    <trip id="veh177" type="veh_passenger" depart="2403.17" departLane="best" departSpeed="max" from="68543285" to="68543285"/>
    <trip id="veh178" type="veh_passenger" depart="2416.75" departLane="best" departSpeed="max" from="68543285" to="68543285"/>
    <trip id="veh179" type="veh_passenger" depart="2430.33" departLane="best" departSpeed="max" from="270367418" to="270367418"/>
    <trip id="veh180" type="veh_passenger" depart="2443.90" departLane="best" departSpeed="max" from="68543285" to="68543285"/>
    <trip id="veh181" type="veh_passenger" depart="2457.48" departLane="best" departSpeed="max" from="270367418" to="270367418"/>
    <trip id="veh182" type="veh_passenger" depart="2471.06" departLane="best" departSpeed="max" from="68543285" to="68543285"/>
    <trip id="veh183" type="veh_passenger" depart="2484.63" departLane="best" departSpeed="max" from="68543285" to="68543285"/>
    <trip id="veh184" type="veh_passenger" depart="2498.21" departLane="best" departSpeed="max" from="270367418" to="270367418"/>
    <trip id="veh185" type="veh_passenger" depart="2511.79" departLane="best" departSpeed="max" from="270367418" to="270367418"/>
    <trip id="veh186" type="veh_passenger" depart="2525.37" departLane="best" departSpeed="max" from="270367418" to="270367418"/>
    <trip id="veh187" type="veh_passenger" depart="2538.94" departLane="best" departSpeed="max" from="68543285" to="68543285"/>
    <trip id="veh188" type="veh_passenger" depart="2552.52" departLane="best" departSpeed="max" from="68543285" to="68543285"/>
    <trip id="veh189" type="veh_passenger" depart="2566.10" departLane="best" departSpeed="max" from="68543285" to="68543285"/>
    <trip id="veh190" type="veh_passenger" depart="2579.67" departLane="best" departSpeed="max" from="270367418" to="270367418"/>
    <trip id="veh191" type="veh_passenger" depart="2593.25" departLane="best" departSpeed="max" from="270367418" to="270367418"/>
    <trip id="veh192" type="veh_passenger" depart="2606.83" departLane="best" departSpeed="max" from="68543285" to="68543285"/>
    <trip id="veh193" type="veh_passenger" depart="2620.41" departLane="best" departSpeed="max" from="68543285" to="68543285"/>
    <trip id="veh194" type="veh_passenger" depart="2633.98" departLane="best" departSpeed="max" from="270367418" to="270367418"/>
    <trip id="veh195" type="veh_passenger" depart="2647.56" departLane="best" departSpeed="max" from="68543285" to="68543285"/>
    <trip id="veh196" type="veh_passenger" depart="2661.14" departLane="best" departSpeed="max" from="270367418" to="270367418"/>
    <trip id="veh197" type="veh_passenger" depart="2674.72" departLane="best" departSpeed="max" from="68543285" to="68543285"/>
    <trip id="veh198" type="veh_passenger" depart="2688.29" departLane="best" departSpeed="max" from="68543285" to="68543285"/>
    <trip id="veh199" type="veh_passenger" depart="2701.87" departLane="best" departSpeed="max" from="68543285" to="68543285"/>
    <trip id="veh200" type="veh_passenger" depart="2715.45" departLane="best" departSpeed="max" from="270367418" to="270367418"/>
    <trip id="veh201" type="veh_passenger" depart="2729.02" departLane="best" departSpeed="max" from="68543285" to="68543285"/>
    <trip id="veh202" type="veh_passenger" depart="2742.60" departLane="best" departSpeed="max" from="68543285" to="68543285"/>
    <trip id="veh203" type="veh_passenger" depart="2756.18" departLane="best" departSpeed="max" from="68543285" to="68543285"/>
    <trip id="veh204" type="veh_passenger" depart="2769.76" departLane="best" departSpeed="max" from="68543285" to="68543285"/>
    <trip id="veh205" type="veh_passenger" depart="2783.33" departLane="best" departSpeed="max" from="270367418" to="270367418"/>
    <trip id="veh206" type="veh_passenger" depart="2796.91" departLane="best" departSpeed="max" from="68543285" to="68543285"/>
    <trip id="veh207" type="veh_passenger" depart="2810.49" departLane="best" departSpeed="max" from="270367418" to="270367418"/>
    <trip id="veh208" type="veh_passenger" depart="2824.06" departLane="best" departSpeed="max" from="68543285" to="68543285"/>
    <trip id="veh209" type="veh_passenger" depart="2837.64" departLane="best" departSpeed="max" from="270367418" to="270367418"/>
    <trip id="veh210" type="veh_passenger" depart="2851.22" departLane="best" departSpeed="max" from="68543285" to="68543285"/>
    <trip id="veh211" type="veh_passenger" depart="2864.80" departLane="best" departSpeed="max" from="68543285" to="68543285"/>
    <trip id="veh212" type="veh_passenger" depart="2878.37" departLane="best" departSpeed="max" from="68543285" to="68543285"/>
    <trip id="veh213" type="veh_passenger" depart="2891.95" departLane="best" departSpeed="max" from="68543285" to="68543285"/>
    <trip id="veh214" type="veh_passenger" depart="2905.53" departLane="best" departSpeed="max" from="68543285" to="68543285"/>