<?xml version="1.0" encoding="UTF-8"?>

<!-- generated on 2024-05-10 10:19:00.535980 by osmWebWizard.py v1_19_0+0000-baa66a0f364
<configuration>
    <net-file value="F:\SUMO\OptimalEmission-SUMO-ReinforcementLearning\2024-05-10-10-18-56\osm.net.xml.gz"/>
    <output-trip-file value="F:\SUMO\OptimalEmission-SUMO-ReinforcementLearning\2024-05-10-10-18-56\osm.bus.trips.xml"/>
    <route-file value="F:\SUMO\OptimalEmission-SUMO-ReinforcementLearning\2024-05-10-10-18-56\osm.bus.rou.xml"/>
    <prefix value="bus"/>
    <trip-attributes value="departLane=&quot;best&quot;"/>
    <fringe-start-attributes value="departSpeed=&quot;max&quot;"/>
    <vehicle-class value="bus"/>
    <fringe-factor value="50"/>
    <vclass value="bus"/>
    <via-edge-types value="highway.motorway,highway.motorway_link,highway.trunk_link,highway.primary_link,highway.secondary_link,highway.tertiary_link"/>
    <min-distance value="600.0"/>
    <min-distance.fringe value="10.0"/>
    <remove-loops value="True"/>
    <validate value="True"/>
    <end value="60000.0"/>
    <insertion-density value="4.0"/>
</configuration>
-->

<!-- generated on 2024-05-10 10:19:00 by Eclipse SUMO duarouter Version 1.19.0
<configuration xmlns:xsi="http://www.w3.org/2001/XMLSchema-instance" xsi:noNamespaceSchemaLocation="http://sumo.dlr.de/xsd/duarouterConfiguration.xsd">

    <input>
        <net-file value="F:\SUMO\OptimalEmission-SUMO-ReinforcementLearning\2024-05-10-10-18-56\osm.net.xml.gz"/>
        <route-files value="F:\SUMO\OptimalEmission-SUMO-ReinforcementLearning\2024-05-10-10-18-56\osm.bus.trips.xml"/>
    </input>

    <output>
        <output-file value="F:\SUMO\OptimalEmission-SUMO-ReinforcementLearning\2024-05-10-10-18-56\osm.bus.trips.xml.tmp"/>
        <alternatives-output value="NUL"/>
        <write-trips value="true"/>
    </output>

    <processing>
        <remove-loops value="true"/>
    </processing>

    <time>
        <begin value="0.0"/>
        <end value="60000.0"/>
    </time>

    <report>
        <no-warnings value="true"/>
        <ignore-errors value="true"/>
        <no-step-log value="true"/>
    </report>

</configuration>
-->

<routes xmlns:xsi="http://www.w3.org/2001/XMLSchema-instance" xsi:noNamespaceSchemaLocation="http://sumo.dlr.de/xsd/routes_file.xsd"/>
