<?xml version="1.0" encoding="UTF-8"?>

<!-- generated on 2024-05-10 11:02:39.432237 by osmWebWizard.py v1_19_0+0000-baa66a0f364
<configuration>
    <net-file value="F:\SUMO\OptimalEmission-SUMO-ReinforcementLearning\2024-05-10-11-02-31\osm.net.xml.gz"/>
    <output-trip-file value="F:\SUMO\OptimalEmission-SUMO-ReinforcementLearning\2024-05-10-11-02-31\osm.bus.trips.xml"/>
    <route-file value="F:\SUMO\OptimalEmission-SUMO-ReinforcementLearning\2024-05-10-11-02-31\osm.bus.rou.xml"/>
    <prefix value="bus"/>
    <trip-attributes value="departLane=&quot;best&quot;"/>
    <fringe-start-attributes value="departSpeed=&quot;max&quot;"/>
    <vehicle-class value="bus"/>
    <fringe-factor value="5"/>
    <vclass value="bus"/>
    <via-edge-types value="highway.motorway,highway.motorway_link,highway.trunk_link,highway.primary_link,highway.secondary_link,highway.tertiary_link"/>
    <min-distance value="600.0"/>
    <min-distance.fringe value="10.0"/>
    <remove-loops value="True"/>
    <validate value="True"/>
    <end value="60000.0"/>
    <insertion-density value="4.0"/>
</configuration>
-->

<!-- generated on 2024-05-10 11:02:39 by Eclipse SUMO duarouter Version 1.19.0
<configuration xmlns:xsi="http://www.w3.org/2001/XMLSchema-instance" xsi:noNamespaceSchemaLocation="http://sumo.dlr.de/xsd/duarouterConfiguration.xsd">

    <input>
        <net-file value="F:\SUMO\OptimalEmission-SUMO-ReinforcementLearning\2024-05-10-11-02-31\osm.net.xml.gz"/>
        <route-files value="F:\SUMO\OptimalEmission-SUMO-ReinforcementLearning\2024-05-10-11-02-31\osm.bus.trips.xml"/>
    </input>

    <output>
        <output-file value="F:\SUMO\OptimalEmission-SUMO-ReinforcementLearning\2024-05-10-11-02-31\osm.bus.trips.xml.tmp"/>
        <alternatives-output value="NUL"/>
        <write-trips value="true"/>
    </output>

    <processing>
        <remove-loops value="true"/>
    </processing>

    <time>
        <begin value="0.0"/>
        <end value="60000.0"/>
    </time>

    <report>
        <no-warnings value="true"/>
        <ignore-errors value="true"/>
        <no-step-log value="true"/>
    </report>

</configuration>
-->

<routes xmlns:xsi="http://www.w3.org/2001/XMLSchema-instance" xsi:noNamespaceSchemaLocation="http://sumo.dlr.de/xsd/routes_file.xsd">
    <vType id="bus_bus" vClass="bus"/>
    <trip id="bus1" type="bus_bus" depart="11.06" departLane="best" departSpeed="max" from="27853330" to="270376454"/>
    <trip id="bus3" type="bus_bus" depart="33.19" departLane="best" departSpeed="max" from="241498406" to="256507648"/>
    <trip id="bus5" type="bus_bus" depart="55.32" departLane="best" departSpeed="max" from="241498406" to="270367419"/>
    <trip id="bus6" type="bus_bus" depart="66.38" departLane="best" departSpeed="max" from="4366988" to="270376454"/>
    <trip id="bus11" type="bus_bus" depart="121.70" departLane="best" departSpeed="max" from="4366988" to="270376454"/>
    <trip id="bus12" type="bus_bus" depart="132.77" departLane="best" departSpeed="max" from="24960184" to="8094395"/>
    <trip id="bus16" type="bus_bus" depart="177.02" departLane="best" departSpeed="max" from="27853330" to="160247335"/>
    <trip id="bus20" type="bus_bus" depart="221.28" departLane="best" departSpeed="max" from="241498406" to="8094395"/>
    <trip id="bus21" type="bus_bus" depart="232.34" departLane="best" departSpeed="max" from="256507659" to="270367419"/>
    <trip id="bus22" type="bus_bus" depart="243.41" departLane="best" departSpeed="max" from="135254875" to="270376454"/>
    <trip id="bus23" type="bus_bus" depart="254.47" departLane="best" departSpeed="max" from="135254875" to="24960346"/>
    <trip id="bus24" type="bus_bus" depart="265.53" departLane="best" departSpeed="max" from="5081498#0" to="270367419"/>
    <trip id="bus26" type="bus_bus" depart="287.66" departLane="best" departSpeed="max" from="4366988" to="270376454"/>
    <trip id="bus28" type="bus_bus" depart="309.79" departLane="best" departSpeed="max" from="24905768" to="24959390"/>
    <trip id="bus29" type="bus_bus" depart="320.85" departLane="best" departSpeed="max" from="241498406" to="8094395"/>
    <trip id="bus34" type="bus_bus" depart="376.17" departLane="best" departSpeed="max" from="24960184" to="8094395"/>
    <trip id="bus40" type="bus_bus" depart="442.56" departLane="best" departSpeed="max" from="241498406" to="270367419"/>
    <trip id="bus41" type="bus_bus" depart="453.62" departLane="best" departSpeed="max" from="135254875" to="24960346"/>
    <trip id="bus43" type="bus_bus" depart="475.75" departLane="best" departSpeed="max" from="241498406" to="270367419"/>
    <trip id="bus44" type="bus_bus" depart="486.81" departLane="best" departSpeed="max" from="256507659" to="23886552"/>
    <trip id="bus47" type="bus_bus" depart="520.01" departLane="best" departSpeed="max" from="24905768" to="160247335"/>
    <trip id="bus52" type="bus_bus" depart="575.33" departLane="best" departSpeed="max" from="241498406" to="383821432"/>
    <trip id="bus56" type="bus_bus" depart="619.58" departLane="best" departSpeed="max" from="5081498#0" to="270367419"/>
    <trip id="bus58" type="bus_bus" depart="641.71" departLane="best" departSpeed="max" from="241498406" to="23886552"/>
    <trip id="bus59" type="bus_bus" depart="652.77" departLane="best" departSpeed="max" from="132846158" to="270367419"/>
    <trip id="bus60" type="bus_bus" depart="663.84" departLane="best" departSpeed="max" from="241498406" to="8094395"/>
    <trip id="bus61" type="bus_bus" depart="674.90" departLane="best" departSpeed="max" from="241498406" to="23886552"/>
    <trip id="bus62" type="bus_bus" depart="685.97" departLane="best" departSpeed="max" from="5081498#0" to="270367419"/>
    <trip id="bus67" type="bus_bus" depart="741.29" departLane="best" departSpeed="max" from="27853330" to="270376454"/>
    <trip id="bus71" type="bus_bus" depart="785.54" departLane="best" departSpeed="max" from="241498406" to="8094395"/>
    <trip id="bus74" type="bus_bus" depart="818.73" departLane="best" departSpeed="max" from="5081498#0" to="8094395"/>
    <trip id="bus79" type="bus_bus" depart="874.05" departLane="best" departSpeed="max" from="241498406" to="383821432"/>
    <trip id="bus81" type="bus_bus" depart="896.18" departLane="best" departSpeed="max" from="5081498#0" to="8094395"/>
    <trip id="bus83" type="bus_bus" depart="918.31" departLane="best" departSpeed="max" from="5081498#0" to="270367419"/>
    <trip id="bus85" type="bus_bus" depart="940.44" departLane="best" departSpeed="max" from="132846158" to="270367419"/>
    <trip id="bus89" type="bus_bus" depart="984.69" departLane="best" departSpeed="max" from="241498406" to="23886552"/>
    <trip id="bus91" type="bus_bus" depart="1006.82" departLane="best" departSpeed="max" from="24960184" to="270367419"/>
    <trip id="bus92" type="bus_bus" depart="1017.88" departLane="best" departSpeed="max" from="24959485" to="270367419"/>
    <trip id="bus93" type="bus_bus" depart="1028.95" departLane="best" departSpeed="max" from="24960184" to="8094395"/>
    <trip id="bus96" type="bus_bus" depart="1062.14" departLane="best" departSpeed="max" from="24905768" to="270376454"/>
    <trip id="bus98" type="bus_bus" depart="1084.27" departLane="best" departSpeed="max" from="5081498#0" to="8094395"/>
    <trip id="bus100" type="bus_bus" depart="1106.40" departLane="best" departSpeed="max" from="241498406" to="8094395"/>
    <trip id="bus102" type="bus_bus" depart="1128.52" departLane="best" departSpeed="max" from="4366988" to="270376454"/>
    <trip id="bus103" type="bus_bus" depart="1139.59" departLane="best" departSpeed="max" from="256507659" to="8094395"/>
    <trip id="bus105" type="bus_bus" depart="1161.72" departLane="best" departSpeed="max" from="256507659" to="8094395"/>
    <trip id="bus108" type="bus_bus" depart="1194.91" departLane="best" departSpeed="max" from="241498406" to="270367419"/>
    <trip id="bus122" type="bus_bus" depart="1349.80" departLane="best" departSpeed="max" from="24959485" to="270367419"/>
    <trip id="bus127" type="bus_bus" depart="1405.12" departLane="best" departSpeed="max" from="27853330" to="160247335"/>
    <trip id="bus128" type="bus_bus" depart="1416.19" departLane="best" departSpeed="max" from="241498406" to="383821432"/>
    <trip id="bus134" type="bus_bus" depart="1482.57" departLane="best" departSpeed="max" from="5081498#0" to="23886552"/>
    <trip id="bus135" type="bus_bus" depart="1493.63" departLane="best" departSpeed="max" from="5081498#0" to="23886552"/>
    <trip id="bus137" type="bus_bus" depart="1515.76" departLane="best" departSpeed="max" from="135254875" to="24960346"/>
    <trip id="bus140" type="bus_bus" depart="1548.95" departLane="best" departSpeed="max" from="27853330" to="270376454"/>
    <trip id="bus141" type="bus_bus" depart="1560.02" departLane="best" departSpeed="max" from="24905768" to="160247335"/>
    <trip id="bus145" type="bus_bus" depart="1604.27" departLane="best" departSpeed="max" from="24905768" to="24960346"/>
    <trip id="bus146" type="bus_bus" depart="1615.34" departLane="best" departSpeed="max" from="135254875" to="24960346"/>
    <trip id="bus148" type="bus_bus" depart="1637.47" departLane="best" departSpeed="max" from="5081498#0" to="270367419"/>
    <trip id="bus150" type="bus_bus" depart="1659.59" departLane="best" departSpeed="max" from="24959485" to="270367419"/>
    <trip id="bus154" type="bus_bus" depart="1703.85" departLane="best" departSpeed="max" from="4366988" to="270376454"/>
    <trip id="bus156" type="bus_bus" depart="1725.98" departLane="best" departSpeed="max" from="135254875" to="160247335"/>
    <trip id="bus157" type="bus_bus" depart="1737.04" departLane="best" departSpeed="max" from="241498406" to="256507648"/>
    <trip id="bus158" type="bus_bus" depart="1748.10" departLane="best" departSpeed="max" from="24959485" to="270367419"/>
    <trip id="bus159" type="bus_bus" depart="1759.17" departLane="best" departSpeed="max" from="135254875" to="270376454"/>
    <trip id="bus160" type="bus_bus" depart="1770.23" departLane="best" departSpeed="max" from="27853330" to="270376454"/>
    <trip id="bus161" type="bus_bus" depart="1781.30" departLane="best" departSpeed="max" from="135254875" to="24960346"/>
    <trip id="bus163" type="bus_bus" depart="1803.42" departLane="best" departSpeed="max" from="241498406" to="383821432"/>
    <trip id="bus165" type="bus_bus" depart="1825.55" departLane="best" departSpeed="max" from="256507659" to="8094395"/>
    <trip id="bus166" type="bus_bus" depart="1836.62" departLane="best" departSpeed="max" from="24960184" to="8094395"/>
    <trip id="bus169" type="bus_bus" depart="1869.81" departLane="best" departSpeed="max" from="4366988" to="270376454"/>
    <trip id="bus170" type="bus_bus" depart="1880.87" departLane="best" departSpeed="max" from="241498406" to="270367419"/>
    <trip id="bus174" type="bus_bus" depart="1925.13" departLane="best" departSpeed="max" from="27853330" to="160247335"/>
    <trip id="bus178" type="bus_bus" depart="1969.38" departLane="best" departSpeed="max" from="4366988" to="270376454"/>
    <trip id="bus179" type="bus_bus" depart="1980.45" departLane="best" departSpeed="max" from="24905768" to="160247335"/>
    <trip id="bus180" type="bus_bus" depart="1991.51" departLane="best" departSpeed="max" from="24905768" to="270376454"/>
    <trip id="bus183" type="bus_bus" depart="2024.70" departLane="best" departSpeed="max" from="24960184" to="270367419"/>
    <trip id="bus184" type="bus_bus" depart="2035.77" departLane="best" departSpeed="max" from="241498406" to="23886552"/>
    <trip id="bus186" type="bus_bus" depart="2057.90" departLane="best" departSpeed="max" from="24905768" to="270376454"/>
    <trip id="bus189" type="bus_bus" depart="2091.09" departLane="best" departSpeed="max" from="132846158" to="270367419"/>
    <trip id="bus198" type="bus_bus" depart="2190.66" departLane="best" departSpeed="max" from="5081498#0" to="23886552"/>
    <trip id="bus200" type="bus_bus" depart="2212.79" departLane="best" departSpeed="max" from="135254875" to="270376454"/>
    <trip id="bus204" type="bus_bus" depart="2257.05" departLane="best" departSpeed="max" from="135254875" to="160247335"/>
    <trip id="bus205" type="bus_bus" depart="2268.11" departLane="best" departSpeed="max" from="24905768" to="270376454"/>
    <trip id="bus207" type="bus_bus" depart="2290.24" departLane="best" departSpeed="max" from="27853330" to="160247335"/>
    <trip id="bus208" type="bus_bus" depart="2301.30" departLane="best" departSpeed="max" from="256507659" to="270367419"/>
    <trip id="bus209" type="bus_bus" depart="2312.37" departLane="best" departSpeed="max" from="135254875" to="270376454"/>
    <trip id="bus213" type="bus_bus" depart="2356.62" departLane="best" departSpeed="max" from="241498406" to="383821432"/>
    <trip id="bus216" type="bus_bus" depart="2389.81" departLane="best" departSpeed="max" from="241498406" to="383821432"/>
    <trip id="bus218" type="bus_bus" depart="2411.94" departLane="best" departSpeed="max" from="24959485" to="270367419"/>
    <trip id="bus219" type="bus_bus" depart="2423.01" departLane="best" departSpeed="max" from="24905768" to="160247335"/>
    <trip id="bus221" type="bus_bus" depart="2445.13" departLane="best" departSpeed="max" from="241498406" to="383821432"/>
    <trip id="bus226" type="bus_bus" depart="2500.45" departLane="best" departSpeed="max" from="256507659" to="270367419"/>
    <trip id="bus233" type="bus_bus" depart="2577.90" departLane="best" departSpeed="max" from="241498406" to="23886552"/>
    <trip id="bus239" type="bus_bus" depart="2644.29" departLane="best" departSpeed="max" from="135254875" to="160247335"/>
    <trip id="bus241" type="bus_bus" depart="2666.41" departLane="best" departSpeed="max" from="256507659" to="23886552"/>
    <trip id="bus244" type="bus_bus" depart="2699.61" departLane="best" departSpeed="max" from="135254875" to="160247335"/>
    <trip id="bus246" type="bus_bus" depart="2721.73" departLane="best" departSpeed="max" from="132846158" to="270367419"/>
    <trip id="bus249" type="bus_bus" depart="2754.92" departLane="best" departSpeed="max" from="5081498#0" to="23886552"/>
    <trip id="bus255" type="bus_bus" depart="2821.31" departLane="best" departSpeed="max" from="256507659" to="270367419"/>
    <trip id="bus257" type="bus_bus" depart="2843.44" departLane="best" departSpeed="max" from="241498406" to="23886552"/>
    <trip id="bus258" type="bus_bus" depart="2854.50" departLane="best" departSpeed="max" from="256507659" to="23886552"/>
    <trip id="bus259" type="bus_bus" depart="2865.56" departLane="best" departSpeed="max" from="135254875" to="160247335"/>
    <trip id="bus263" type="bus_bus" depart="2909.82" departLane="best" departSpeed="max" from="256507659" to="8094395"/>
    <trip id="bus265" type="bus_bus" depart="2931.95" departLane="best" departSpeed="max" from="256507659" to="8094395"/>
    <trip id="bus267" type="bus_bus" depart="2954.08" departLane="best" departSpeed="max" from="256507659" to="8094395"/>
    <trip id="bus269" type="bus_bus" depart="2976.20" departLane="best" departSpeed="max" from="241498406" to="23886552"/>
    <trip id="bus273" type="bus_bus" depart="3020.46" departLane="best" departSpeed="max" from="24905768" to="24959390"/>
    <trip id="bus275" type="bus_bus" depart="3042.59" departLane="best" departSpeed="max" from="5081498#0" to="8094395"/>
    <trip id="bus278" type="bus_bus" depart="3075.78" departLane="best" departSpeed="max" from="24959485" to="270367419"/>
    <trip id="bus279" type="bus_bus" depart="3086.84" departLane="best" departSpeed="max" from="5081498#0" to="23886552"/>
    <trip id="bus280" type="bus_bus" depart="3097.91" departLane="best" departSpeed="max" from="24960184" to="270367419"/>
    <trip id="bus282" type="bus_bus" depart="3120.04" departLane="best" departSpeed="max" from="24905768" to="24959390"/>
    <trip id="bus283" type="bus_bus" depart="3131.10" departLane="best" departSpeed="max" from="24905768" to="270376454"/>
    <trip id="bus284" type="bus_bus" depart="3142.16" departLane="best" departSpeed="max" from="241498406" to="8094395"/>
    <trip id="bus287" type="bus_bus" depart="3175.36" departLane="best" departSpeed="max" from="5081498#0" to="270367419"/>
    <trip id="bus288" type="bus_bus" depart="3186.42" departLane="best" departSpeed="max" from="135254875" to="24960346"/>
    <trip id="bus290" type="bus_bus" depart="3208.55" departLane="best" departSpeed="max" from="24960184" to="8094395"/>
    <trip id="bus295" type="bus_bus" depart="3263.87" departLane="best" departSpeed="max" from="5081498#0" to="8094395"/>
    <trip id="bus298" type="bus_bus" depart="3297.06" departLane="best" departSpeed="max" from="241498406" to="383821432"/>
    <trip id="bus300" type="bus_bus" depart="3319.19" departLane="best" departSpeed="max" from="241498406" to="383821432"/>
    <trip id="bus303" type="bus_bus" depart="3352.38" departLane="best" departSpeed="max" from="24960184" to="8094395"/>
    <trip id="bus306" type="bus_bus" depart="3385.57" departLane="best" departSpeed="max" from="135254875" to="270376454"/>
    <trip id="bus308" type="bus_bus" depart="3407.70" departLane="best" departSpeed="max" from="27853330" to="160247335"/>
    <trip id="bus309" type="bus_bus" depart="3418.76" departLane="best" departSpeed="max" from="27853330" to="270376454"/>
    <trip id="bus315" type="bus_bus" depart="3485.15" departLane="best" departSpeed="max" from="256507659" to="23886552"/>
    <trip id="bus316" type="bus_bus" depart="3496.21" departLane="best" departSpeed="max" from="24905768" to="270376454"/>
    <trip id="bus317" type="bus_bus" depart="3507.27" departLane="best" departSpeed="max" from="24905768" to="24959390"/>
    <trip id="bus318" type="bus_bus" depart="3518.34" departLane="best" departSpeed="max" from="27853330" to="270376454"/>
    <trip id="bus319" type="bus_bus" depart="3529.40" departLane="best" departSpeed="max" from="132846158" to="270367419"/>
    <trip id="bus320" type="bus_bus" depart="3540.47" departLane="best" departSpeed="max" from="5081498#0" to="8094395"/>
    <trip id="bus321" type="bus_bus" depart="3551.53" departLane="best" departSpeed="max" from="132846158" to="270367419"/>
    <trip id="bus323" type="bus_bus" depart="3573.66" departLane="best" departSpeed="max" from="256507659" to="8094395"/>
    <trip id="bus328" type="bus_bus" depart="3628.98" departLane="best" departSpeed="max" from="135254875" to="160247335"/>
    <trip id="bus330" type="bus_bus" depart="3651.11" departLane="best" departSpeed="max" from="241498406" to="8094395"/>
    <trip id="bus335" type="bus_bus" depart="3706.43" departLane="best" departSpeed="max" from="135254875" to="24960346"/>
    <trip id="bus337" type="bus_bus" depart="3728.55" departLane="best" departSpeed="max" from="241498406" to="383821432"/>
    <trip id="bus338" type="bus_bus" depart="3739.62" departLane="best" departSpeed="max" from="135254875" to="24960346"/>
    <trip id="bus339" type="bus_bus" depart="3750.68" departLane="best" departSpeed="max" from="24960184" to="270367419"/>
    <trip id="bus341" type="bus_bus" depart="3772.81" departLane="best" departSpeed="max" from="5081498#0" to="270367419"/>
    <trip id="bus342" type="bus_bus" depart="3783.87" departLane="best" departSpeed="max" from="241498406" to="270367419"/>
    <trip id="bus344" type="bus_bus" depart="3806.00" departLane="best" departSpeed="max" from="132846158" to="270367419"/>
    <trip id="bus345" type="bus_bus" depart="3817.06" departLane="best" departSpeed="max" from="241498406" to="383821432"/>
    <trip id="bus347" type="bus_bus" depart="3839.19" departLane="best" departSpeed="max" from="256507659" to="270367419"/>
    <trip id="bus349" type="bus_bus" depart="3861.32" departLane="best" departSpeed="max" from="256507659" to="8094395"/>
    <trip id="bus351" type="bus_bus" depart="3883.45" departLane="best" departSpeed="max" from="24959485" to="270367419"/>
    <trip id="bus352" type="bus_bus" depart="3894.51" departLane="best" departSpeed="max" from="27853330" to="160247335"/>
    <trip id="bus354" type="bus_bus" depart="3916.64" departLane="best" departSpeed="max" from="24960184" to="8094395"/>
    <trip id="bus355" type="bus_bus" depart="3927.70" departLane="best" departSpeed="max" from="24960184" to="8094395"/>
    <trip id="bus357" type="bus_bus" depart="3949.83" departLane="best" departSpeed="max" from="4366988" to="270376454"/>
    <trip id="bus359" type="bus_bus" depart="3971.96" departLane="best" departSpeed="max" from="5081498#0" to="23886552"/>
    <trip id="bus364" type="bus_bus" depart="4027.28" departLane="best" departSpeed="max" from="256507659" to="270367419"/>
    <trip id="bus367" type="bus_bus" depart="4060.47" departLane="best" departSpeed="max" from="24960184" to="8094395"/>
    <trip id="bus370" type="bus_bus" depart="4093.66" departLane="best" departSpeed="max" from="24905768" to="24960346"/>
    <trip id="bus378" type="bus_bus" depart="4182.18" departLane="best" departSpeed="max" from="24905768" to="24960346"/>
    <trip id="bus380" type="bus_bus" depart="4204.30" departLane="best" departSpeed="max" from="24960184" to="8094395"/>
    <trip id="bus381" type="bus_bus" depart="4215.37" departLane="best" departSpeed="max" from="24905768" to="24960346"/>
    <trip id="bus383" type="bus_bus" depart="4237.49" departLane="best" departSpeed="max" from="256507659" to="270367419"/>
    <trip id="bus388" type="bus_bus" depart="4292.81" departLane="best" departSpeed="max" from="241498406" to="23886552"/>
    <trip id="bus392" type="bus_bus" depart="4337.07" departLane="best" departSpeed="max" from="241498406" to="23886552"/>
    <trip id="bus395" type="bus_bus" depart="4370.26" departLane="best" departSpeed="max" from="135254875" to="160247335"/>
    <trip id="bus403" type="bus_bus" depart="4458.77" departLane="best" departSpeed="max" from="132846158" to="270367419"/>
    <trip id="bus410" type="bus_bus" depart="4536.22" departLane="best" departSpeed="max" from="24959485" to="270367419"/>
    <trip id="bus414" type="bus_bus" depart="4580.48" departLane="best" departSpeed="max" from="24960184" to="270367419"/>
    <trip id="bus421" type="bus_bus" depart="4657.93" departLane="best" departSpeed="max" from="24905768" to="270376454"/>
    <trip id="bus425" type="bus_bus" depart="4702.18" departLane="best" departSpeed="max" from="241498406" to="23886552"/>
    <trip id="bus427" type="bus_bus" depart="4724.31" departLane="best" departSpeed="max" from="24905768" to="160247335"/>
    <trip id="bus431" type="bus_bus" depart="4768.56" departLane="best" departSpeed="max" from="24905768" to="270376454"/>
    <trip id="bus436" type="bus_bus" depart="4823.88" departLane="best" departSpeed="max" from="241498406" to="23886552"/>
    <trip id="bus439" type="bus_bus" depart="4857.08" departLane="best" departSpeed="max" from="135254875" to="24960346"/>
    <trip id="bus443" type="bus_bus" depart="4901.33" departLane="best" departSpeed="max" from="24960184" to="270367419"/>
    <trip id="bus444" type="bus_bus" depart="4912.40" departLane="best" departSpeed="max" from="135254875" to="160247335"/>
    <trip id="bus448" type="bus_bus" depart="4956.65" departLane="best" departSpeed="max" from="24905768" to="24959390"/>
    <trip id="bus449" type="bus_bus" depart="4967.72" departLane="best" departSpeed="max" from="24905768" to="24959390"/>
    <trip id="bus457" type="bus_bus" depart="5056.23" departLane="best" departSpeed="max" from="256507659" to="23886552"/>
    <trip id="bus459" type="bus_bus" depart="5078.36" departLane="best" departSpeed="max" from="27853330" to="270376454"/>
    <trip id="bus460" type="bus_bus" depart="5089.42" departLane="best" departSpeed="max" from="24960184" to="270367419"/>
    <trip id="bus461" type="bus_bus" depart="5100.48" departLane="best" departSpeed="max" from="256507659" to="23886552"/>
    <trip id="bus463" type="bus_bus" depart="5122.61" departLane="best" departSpeed="max" from="24905768" to="24959390"/>
    <trip id="bus473" type="bus_bus" depart="5233.25" departLane="best" departSpeed="max" from="135254875" to="160247335"/>
    <trip id="bus474" type="bus_bus" depart="5244.31" departLane="best" departSpeed="max" from="24905768" to="270376454"/>
    <trip id="bus477" type="bus_bus" depart="5277.51" departLane="best" departSpeed="max" from="135254875" to="24960346"/>
    <trip id="bus483" type="bus_bus" depart="5343.89" departLane="best" departSpeed="max" from="135254875" to="24960346"/>
    <trip id="bus487" type="bus_bus" depart="5388.15" departLane="best" departSpeed="max" from="4366988" to="270376454"/>
    <trip id="bus488" type="bus_bus" depart="5399.21" departLane="best" departSpeed="max" from="4366988" to="270376454"/>
    <trip id="bus490" type="bus_bus" depart="5421.34" departLane="best" departSpeed="max" from="24905768" to="24960346"/>
    <trip id="bus492" type="bus_bus" depart="5443.47" departLane="best" departSpeed="max" from="241498406" to="23886552"/>
    <trip id="bus494" type="bus_bus" depart="5465.59" departLane="best" departSpeed="max" from="135254875" to="270376454"/>
    <trip id="bus497" type="bus_bus" depart="5498.79" departLane="best" departSpeed="max" from="4366988" to="270376454"/>
    <trip id="bus504" type="bus_bus" depart="5576.23" departLane="best" departSpeed="max" from="5081498#0" to="8094395"/>
    <trip id="bus507" type="bus_bus" depart="5609.43" departLane="best" departSpeed="max" from="241498406" to="270367419"/>
    <trip id="bus511" type="bus_bus" depart="5653.68" departLane="best" departSpeed="max" from="5081498#0" to="23886552"/>
    <trip id="bus512" type="bus_bus" depart="5664.75" departLane="best" departSpeed="max" from="241498406" to="256507648"/>
    <trip id="bus513" type="bus_bus" depart="5675.81" departLane="best" departSpeed="max" from="24905768" to="160247335"/>
    <trip id="bus515" type="bus_bus" depart="5697.94" departLane="best" departSpeed="max" from="241498406" to="8094395"/>
    <trip id="bus516" type="bus_bus" depart="5709.00" departLane="best" departSpeed="max" from="24905768" to="160247335"/>
    <trip id="bus517" type="bus_bus" depart="5720.06" departLane="best" departSpeed="max" from="4366988" to="270376454"/>
    <trip id="bus518" type="bus_bus" depart="5731.13" departLane="best" departSpeed="max" from="135254875" to="270376454"/>
    <trip id="bus521" type="bus_bus" depart="5764.32" departLane="best" departSpeed="max" from="24905768" to="160247335"/>
    <trip id="bus524" type="bus_bus" depart="5797.51" departLane="best" departSpeed="max" from="5081498#0" to="270367419"/>
    <trip id="bus526" type="bus_bus" depart="5819.64" departLane="best" departSpeed="max" from="241498406" to="23886552"/>
    <trip id="bus527" type="bus_bus" depart="5830.70" departLane="best" departSpeed="max" from="24959485" to="270367419"/>
    <trip id="bus531" type="bus_bus" depart="5874.96" departLane="best" departSpeed="max" from="256507659" to="8094395"/>
    <trip id="bus534" type="bus_bus" depart="5908.15" departLane="best" departSpeed="max" from="27853330" to="270376454"/>
    <trip id="bus535" type="bus_bus" depart="5919.22" departLane="best" departSpeed="max" from="24905768" to="160247335"/>
    <trip id="bus541" type="bus_bus" depart="5985.60" departLane="best" departSpeed="max" from="24960184" to="8094395"/>
    <trip id="bus545" type="bus_bus" depart="6029.86" departLane="best" departSpeed="max" from="135254875" to="24960346"/>
    <trip id="bus546" type="bus_bus" depart="6040.92" departLane="best" departSpeed="max" from="4366988" to="270376454"/>
    <trip id="bus549" type="bus_bus" depart="6074.11" departLane="best" departSpeed="max" from="27853330" to="160247335"/>
    <trip id="bus551" type="bus_bus" depart="6096.24" departLane="best" departSpeed="max" from="132846158" to="270367419"/>
    <trip id="bus553" type="bus_bus" depart="6118.37" departLane="best" departSpeed="max" from="24905768" to="160247335"/>
    <trip id="bus556" type="bus_bus" depart="6151.56" departLane="best" departSpeed="max" from="5081498#0" to="8094395"/>
    <trip id="bus557" type="bus_bus" depart="6162.62" departLane="best" departSpeed="max" from="132846158" to="270367419"/>
    <trip id="bus559" type="bus_bus" depart="6184.75" departLane="best" departSpeed="max" from="256507659" to="8094395"/>
    <trip id="bus561" type="bus_bus" depart="6206.88" departLane="best" departSpeed="max" from="27853330" to="160247335"/>
    <trip id="bus563" type="bus_bus" depart="6229.01" departLane="best" departSpeed="max" from="24905768" to="24960346"/>
    <trip id="bus564" type="bus_bus" depart="6240.07" departLane="best" departSpeed="max" from="24960184" to="270367419"/>
    <trip id="bus565" type="bus_bus" depart="6251.13" departLane="best" departSpeed="max" from="256507659" to="8094395"/>
    <trip id="bus566" type="bus_bus" depart="6262.20" departLane="best" departSpeed="max" from="24905768" to="270376454"/>
    <trip id="bus568" type="bus_bus" depart="6284.33" departLane="best" departSpeed="max" from="241498406" to="23886552"/>
    <trip id="bus571" type="bus_bus" depart="6317.52" departLane="best" departSpeed="max" from="241498406" to="8094395"/>
    <trip id="bus575" type="bus_bus" depart="6361.77" departLane="best" departSpeed="max" from="24905768" to="160247335"/>
    <trip id="bus576" type="bus_bus" depart="6372.84" departLane="best" departSpeed="max" from="24960184" to="8094395"/>
    <trip id="bus577" type="bus_bus" depart="6383.90" departLane="best" departSpeed="max" from="4366988" to="270376454"/>
    <trip id="bus578" type="bus_bus" depart="6394.97" departLane="best" departSpeed="max" from="5081498#0" to="270367419"/>
    <trip id="bus584" type="bus_bus" depart="6461.35" departLane="best" departSpeed="max" from="24960184" to="270367419"/>
    <trip id="bus587" type="bus_bus" depart="6494.54" departLane="best" departSpeed="max" from="5081498#0" to="270367419"/>