<?xml version="1.0" encoding="UTF-8"?>

<!-- generated on 2024-05-10 11:02:44.857177 by osmWebWizard.py v1_19_0+0000-baa66a0f364
<configuration>
    <net-file value="F:\SUMO\OptimalEmission-SUMO-ReinforcementLearning\2024-05-10-11-02-31\osm.net.xml.gz"/>
    <output-trip-file value="F:\SUMO\OptimalEmission-SUMO-ReinforcementLearning\2024-05-10-11-02-31\osm.truck.trips.xml"/>
    <route-file value="F:\SUMO\OptimalEmission-SUMO-ReinforcementLearning\2024-05-10-11-02-31\osm.truck.rou.xml"/>
    <prefix value="truck"/>
    <trip-attributes value="departLane=&quot;best&quot;"/>
    <fringe-start-attributes value="departSpeed=&quot;max&quot;"/>
    <vehicle-class value="truck"/>
    <fringe-factor value="5"/>
    <vclass value="truck"/>
    <via-edge-types value="highway.motorway,highway.motorway_link,highway.trunk_link,highway.primary_link,highway.secondary_link,highway.tertiary_link"/>
    <min-distance value="600.0"/>
    <min-distance.fringe value="10.0"/>
    <remove-loops value="True"/>
    <validate value="True"/>
    <end value="60000.0"/>
    <insertion-density value="8.0"/>
</configuration>
-->

<!-- generated on 2024-05-10 11:02:44 by Eclipse SUMO duarouter Version 1.19.0
<configuration xmlns:xsi="http://www.w3.org/2001/XMLSchema-instance" xsi:noNamespaceSchemaLocation="http://sumo.dlr.de/xsd/duarouterConfiguration.xsd">

    <input>
        <net-file value="F:\SUMO\OptimalEmission-SUMO-ReinforcementLearning\2024-05-10-11-02-31\osm.net.xml.gz"/>
        <route-files value="F:\SUMO\OptimalEmission-SUMO-ReinforcementLearning\2024-05-10-11-02-31\osm.truck.trips.xml"/>
    </input>

    <output>
        <output-file value="F:\SUMO\OptimalEmission-SUMO-ReinforcementLearning\2024-05-10-11-02-31\osm.truck.trips.xml.tmp"/>
        <alternatives-output value="NUL"/>
        <write-trips value="true"/>
    </output>

    <processing>
        <remove-loops value="true"/>
    </processing>

    <time>
        <begin value="0.0"/>
        <end value="60000.0"/>
    </time>

    <report>
        <no-warnings value="true"/>
        <ignore-errors value="true"/>
        <no-step-log value="true"/>
    </report>

</configuration>
-->

<routes xmlns:xsi="http://www.w3.org/2001/XMLSchema-instance" xsi:noNamespaceSchemaLocation="http://sumo.dlr.de/xsd/routes_file.xsd">
    <vType id="truck_truck" vClass="truck"/>
    <trip id="truck1" type="truck_truck" depart="5.53" departLane="best" departSpeed="max" from="27853330" to="270376454"/>
    <trip id="truck3" type="truck_truck" depart="16.60" departLane="best" departSpeed="max" from="241498406" to="256507648"/>
    <trip id="truck5" type="truck_truck" depart="27.66" departLane="best" departSpeed="max" from="241498406" to="270367419"/>
    <trip id="truck6" type="truck_truck" depart="33.19" departLane="best" departSpeed="max" from="4366988" to="270376454"/>
    <trip id="truck11" type="truck_truck" depart="60.85" departLane="best" departSpeed="max" from="4366988" to="270376454"/>
    <trip id="truck12" type="truck_truck" depart="66.38" departLane="best" departSpeed="max" from="24960184" to="8094395"/>
    <trip id="truck16" type="truck_truck" depart="88.51" departLane="best" departSpeed="max" from="27853330" to="160247335"/>
    <trip id="truck20" type="truck_truck" depart="110.64" departLane="best" departSpeed="max" from="241498406" to="8094395"/>
    <trip id="truck21" type="truck_truck" depart="116.17" departLane="best" departSpeed="max" from="256507659" to="270367419"/>
    <trip id="truck22" type="truck_truck" depart="121.70" departLane="best" departSpeed="max" from="135254875" to="270376454"/>
    <trip id="truck23" type="truck_truck" depart="127.24" departLane="best" departSpeed="max" from="135254875" to="24960346"/>
    <trip id="truck24" type="truck_truck" depart="132.77" departLane="best" departSpeed="max" from="5081498#0" to="270367419"/>
    <trip id="truck26" type="truck_truck" depart="143.83" departLane="best" departSpeed="max" from="4366988" to="270376454"/>
    <trip id="truck28" type="truck_truck" depart="154.90" departLane="best" departSpeed="max" from="24905768" to="24959390"/>
    <trip id="truck29" type="truck_truck" depart="160.43" departLane="best" departSpeed="max" from="241498406" to="8094395"/>
    <trip id="truck34" type="truck_truck" depart="188.09" departLane="best" departSpeed="max" from="24960184" to="8094395"/>
    <trip id="truck40" type="truck_truck" depart="221.28" departLane="best" departSpeed="max" from="241498406" to="270367419"/>
    <trip id="truck41" type="truck_truck" depart="226.81" departLane="best" departSpeed="max" from="135254875" to="24960346"/>
    <trip id="truck43" type="truck_truck" depart="237.88" departLane="best" departSpeed="max" from="241498406" to="270367419"/>
    <trip id="truck44" type="truck_truck" depart="243.41" departLane="best" departSpeed="max" from="256507659" to="23886552"/>
    <trip id="truck47" type="truck_truck" depart="260.00" departLane="best" departSpeed="max" from="24905768" to="160247335"/>
    <trip id="truck52" type="truck_truck" depart="287.66" departLane="best" departSpeed="max" from="241498406" to="383821432"/>
    <trip id="truck56" type="truck_truck" depart="309.79" departLane="best" departSpeed="max" from="5081498#0" to="270367419"/>
    <trip id="truck58" type="truck_truck" depart="320.85" departLane="best" departSpeed="max" from="241498406" to="23886552"/>
    <trip id="truck59" type="truck_truck" depart="326.39" departLane="best" departSpeed="max" from="132846158" to="270367419"/>
    <trip id="truck60" type="truck_truck" depart="331.92" departLane="best" departSpeed="max" from="241498406" to="8094395"/>
    <trip id="truck61" type="truck_truck" depart="337.45" departLane="best" departSpeed="max" from="241498406" to="23886552"/>
    <trip id="truck62" type="truck_truck" depart="342.98" departLane="best" departSpeed="max" from="5081498#0" to="270367419"/>
    <trip id="truck67" type="truck_truck" depart="370.64" departLane="best" departSpeed="max" from="27853330" to="270376454"/>
    <trip id="truck71" type="truck_truck" depart="392.77" departLane="best" departSpeed="max" from="241498406" to="8094395"/>
    <trip id="truck74" type="truck_truck" depart="409.37" departLane="best" departSpeed="max" from="5081498#0" to="8094395"/>
    <trip id="truck79" type="truck_truck" depart="437.03" departLane="best" departSpeed="max" from="241498406" to="383821432"/>
    <trip id="truck81" type="truck_truck" depart="448.09" departLane="best" departSpeed="max" from="5081498#0" to="8094395"/>
    <trip id="truck83" type="truck_truck" depart="459.15" departLane="best" departSpeed="max" from="5081498#0" to="270367419"/>
    <trip id="truck85" type="truck_truck" depart="470.22" departLane="best" departSpeed="max" from="132846158" to="270367419"/>
    <trip id="truck89" type="truck_truck" depart="492.35" departLane="best" departSpeed="max" from="241498406" to="23886552"/>
    <trip id="truck91" type="truck_truck" depart="503.41" departLane="best" departSpeed="max" from="24960184" to="270367419"/>
    <trip id="truck92" type="truck_truck" depart="508.94" departLane="best" departSpeed="max" from="24959485" to="270367419"/>
    <trip id="truck93" type="truck_truck" depart="514.47" departLane="best" departSpeed="max" from="24960184" to="8094395"/>
    <trip id="truck96" type="truck_truck" depart="531.07" departLane="best" departSpeed="max" from="24905768" to="270376454"/>
    <trip id="truck98" type="truck_truck" depart="542.13" departLane="best" departSpeed="max" from="5081498#0" to="8094395"/>
    <trip id="truck100" type="truck_truck" depart="553.20" departLane="best" departSpeed="max" from="241498406" to="8094395"/>
    <trip id="truck102" type="truck_truck" depart="564.26" departLane="best" departSpeed="max" from="4366988" to="270376454"/>
    <trip id="truck103" type="truck_truck" depart="569.79" departLane="best" departSpeed="max" from="256507659" to="8094395"/>
    <trip id="truck105" type="truck_truck" depart="580.86" departLane="best" departSpeed="max" from="256507659" to="8094395"/>
    <trip id="truck108" type="truck_truck" depart="597.45" departLane="best" departSpeed="max" from="241498406" to="270367419"/>
    <trip id="truck122" type="truck_truck" depart="674.90" departLane="best" departSpeed="max" from="24959485" to="270367419"/>
    <trip id="truck127" type="truck_truck" depart="702.56" departLane="best" departSpeed="max" from="27853330" to="160247335"/>
    <trip id="truck128" type="truck_truck" depart="708.09" departLane="best" departSpeed="max" from="241498406" to="383821432"/>
    <trip id="truck134" type="truck_truck" depart="741.29" departLane="best" departSpeed="max" from="5081498#0" to="23886552"/>
    <trip id="truck135" type="truck_truck" depart="746.82" departLane="best" departSpeed="max" from="5081498#0" to="23886552"/>
    <trip id="truck137" type="truck_truck" depart="757.88" departLane="best" departSpeed="max" from="135254875" to="24960346"/>
    <trip id="truck140" type="truck_truck" depart="774.48" departLane="best" departSpeed="max" from="27853330" to="270376454"/>
    <trip id="truck141" type="truck_truck" depart="780.01" departLane="best" departSpeed="max" from="24905768" to="160247335"/>
    <trip id="truck145" type="truck_truck" depart="802.14" departLane="best" departSpeed="max" from="24905768" to="24960346"/>
    <trip id="truck146" type="truck_truck" depart="807.67" departLane="best" departSpeed="max" from="135254875" to="24960346"/>
    <trip id="truck148" type="truck_truck" depart="818.73" departLane="best" departSpeed="max" from="5081498#0" to="270367419"/>
    <trip id="truck150" type="truck_truck" depart="829.80" departLane="best" departSpeed="max" from="24959485" to="270367419"/>
    <trip id="truck154" type="truck_truck" depart="851.92" departLane="best" departSpeed="max" from="4366988" to="270376454"/>
    <trip id="truck156" type="truck_truck" depart="862.99" departLane="best" departSpeed="max" from="135254875" to="160247335"/>
    <trip id="truck157" type="truck_truck" depart="868.52" departLane="best" departSpeed="max" from="241498406" to="256507648"/>
    <trip id="truck158" type="truck_truck" depart="874.05" departLane="best" departSpeed="max" from="24959485" to="270367419"/>
    <trip id="truck159" type="truck_truck" depart="879.58" departLane="best" departSpeed="max" from="135254875" to="270376454"/>
    <trip id="truck160" type="truck_truck" depart="885.12" departLane="best" departSpeed="max" from="27853330" to="270376454"/>
    <trip id="truck161" type="truck_truck" depart="890.65" departLane="best" departSpeed="max" from="135254875" to="24960346"/>
    <trip id="truck163" type="truck_truck" depart="901.71" departLane="best" departSpeed="max" from="241498406" to="383821432"/>
    <trip id="truck165" type="truck_truck" depart="912.78" departLane="best" departSpeed="max" from="256507659" to="8094395"/>
    <trip id="truck166" type="truck_truck" depart="918.31" departLane="best" departSpeed="max" from="24960184" to="8094395"/>
    <trip id="truck169" type="truck_truck" depart="934.90" departLane="best" departSpeed="max" from="4366988" to="270376454"/>
    <trip id="truck170" type="truck_truck" depart="940.44" departLane="best" departSpeed="max" from="241498406" to="270367419"/>
    <trip id="truck174" type="truck_truck" depart="962.56" departLane="best" departSpeed="max" from="27853330" to="160247335"/>
    <trip id="truck178" type="truck_truck" depart="984.69" departLane="best" departSpeed="max" from="4366988" to="270376454"/>
    <trip id="truck179" type="truck_truck" depart="990.22" departLane="best" departSpeed="max" from="24905768" to="160247335"/>
    <trip id="truck180" type="truck_truck" depart="995.76" departLane="best" departSpeed="max" from="24905768" to="270376454"/>
    <trip id="truck183" type="truck_truck" depart="1012.35" departLane="best" departSpeed="max" from="24960184" to="270367419"/>
    <trip id="truck184" type="truck_truck" depart="1017.88" departLane="best" departSpeed="max" from="241498406" to="23886552"/>
    <trip id="truck186" type="truck_truck" depart="1028.95" departLane="best" departSpeed="max" from="24905768" to="270376454"/>
    <trip id="truck189" type="truck_truck" depart="1045.54" departLane="best" departSpeed="max" from="132846158" to="270367419"/>
    <trip id="truck198" type="truck_truck" depart="1095.33" departLane="best" departSpeed="max" from="5081498#0" to="23886552"/>
    <trip id="truck200" type="truck_truck" depart="1106.40" departLane="best" departSpeed="max" from="135254875" to="270376454"/>
    <trip id="truck204" type="truck_truck" depart="1128.52" departLane="best" departSpeed="max" from="135254875" to="160247335"/>
    <trip id="truck205" type="truck_truck" depart="1134.06" departLane="best" departSpeed="max" from="24905768" to="270376454"/>
    <trip id="truck207" type="truck_truck" depart="1145.12" departLane="best" departSpeed="max" from="27853330" to="160247335"/>
    <trip id="truck208" type="truck_truck" depart="1150.65" departLane="best" departSpeed="max" from="256507659" to="270367419"/>
    <trip id="truck209" type="truck_truck" depart="1156.18" departLane="best" departSpeed="max" from="135254875" to="270376454"/>
    <trip id="truck213" type="truck_truck" depart="1178.31" departLane="best" departSpeed="max" from="241498406" to="383821432"/>
    <trip id="truck216" type="truck_truck" depart="1194.91" departLane="best" departSpeed="max" from="241498406" to="383821432"/>
    <trip id="truck218" type="truck_truck" depart="1205.97" departLane="best" departSpeed="max" from="24959485" to="270367419"/>
    <trip id="truck219" type="truck_truck" depart="1211.50" departLane="best" departSpeed="max" from="24905768" to="160247335"/>
    <trip id="truck221" type="truck_truck" depart="1222.57" departLane="best" departSpeed="max" from="241498406" to="383821432"/>
    <trip id="truck226" type="truck_truck" depart="1250.23" departLane="best" departSpeed="max" from="256507659" to="270367419"/>
    <trip id="truck233" type="truck_truck" depart="1288.95" departLane="best" departSpeed="max" from="241498406" to="23886552"/>
    <trip id="truck239" type="truck_truck" depart="1322.14" departLane="best" departSpeed="max" from="135254875" to="160247335"/>
    <trip id="truck241" type="truck_truck" depart="1333.21" departLane="best" departSpeed="max" from="256507659" to="23886552"/>
    <trip id="truck244" type="truck_truck" depart="1349.80" departLane="best" departSpeed="max" from="135254875" to="160247335"/>
    <trip id="truck246" type="truck_truck" depart="1360.87" departLane="best" departSpeed="max" from="132846158" to="270367419"/>
    <trip id="truck249" type="truck_truck" depart="1377.46" departLane="best" departSpeed="max" from="5081498#0" to="23886552"/>
    <trip id="truck255" type="truck_truck" depart="1410.65" departLane="best" departSpeed="max" from="256507659" to="270367419"/>
    <trip id="truck257" type="truck_truck" depart="1421.72" departLane="best" departSpeed="max" from="241498406" to="23886552"/>
    <trip id="truck258" type="truck_truck" depart="1427.25" departLane="best" departSpeed="max" from="256507659" to="23886552"/>
    <trip id="truck259" type="truck_truck" depart="1432.78" departLane="best" departSpeed="max" from="135254875" to="160247335"/>
    <trip id="truck263" type="truck_truck" depart="1454.91" departLane="best" departSpeed="max" from="256507659" to="8094395"/>
    <trip id="truck265" type="truck_truck" depart="1465.97" departLane="best" departSpeed="max" from="256507659" to="8094395"/>
    <trip id="truck267" type="truck_truck" depart="1477.04" departLane="best" departSpeed="max" from="256507659" to="8094395"/>
    <trip id="truck269" type="truck_truck" depart="1488.10" departLane="best" departSpeed="max" from="241498406" to="23886552"/>
    <trip id="truck273" type="truck_truck" depart="1510.23" departLane="best" departSpeed="max" from="24905768" to="24959390"/>
    <trip id="truck275" type="truck_truck" depart="1521.29" departLane="best" departSpeed="max" from="5081498#0" to="8094395"/>
    <trip id="truck278" type="truck_truck" depart="1537.89" departLane="best" departSpeed="max" from="24959485" to="270367419"/>
    <trip id="truck279" type="truck_truck" depart="1543.42" departLane="best" departSpeed="max" from="5081498#0" to="23886552"/>
    <trip id="truck280" type="truck_truck" depart="1548.95" departLane="best" departSpeed="max" from="24960184" to="270367419"/>
    <trip id="truck282" type="truck_truck" depart="1560.02" departLane="best" departSpeed="max" from="24905768" to="24959390"/>
    <trip id="truck283" type="truck_truck" depart="1565.55" departLane="best" departSpeed="max" from="24905768" to="270376454"/>
    <trip id="truck284" type="truck_truck" depart="1571.08" departLane="best" departSpeed="max" from="241498406" to="8094395"/>
    <trip id="truck287" type="truck_truck" depart="1587.68" departLane="best" departSpeed="max" from="5081498#0" to="270367419"/>
    <trip id="truck288" type="truck_truck" depart="1593.21" departLane="best" departSpeed="max" from="135254875" to="24960346"/>
    <trip id="truck290" type="truck_truck" depart="1604.27" departLane="best" departSpeed="max" from="24960184" to="8094395"/>
    <trip id="truck295" type="truck_truck" depart="1631.93" departLane="best" departSpeed="max" from="5081498#0" to="8094395"/>
    <trip id="truck298" type="truck_truck" depart="1648.53" departLane="best" departSpeed="max" from="241498406" to="383821432"/>
    <trip id="truck300" type="truck_truck" depart="1659.59" departLane="best" departSpeed="max" from="241498406" to="383821432"/>
    <trip id="truck303" type="truck_truck" depart="1676.19" departLane="best" departSpeed="max" from="24960184" to="8094395"/>
    <trip id="truck306" type="truck_truck" depart="1692.79" departLane="best" departSpeed="max" from="135254875" to="270376454"/>
    <trip id="truck308" type="truck_truck" depart="1703.85" departLane="best" departSpeed="max" from="27853330" to="160247335"/>
    <trip id="truck309" type="truck_truck" depart="1709.38" departLane="best" departSpeed="max" from="27853330" to="270376454"/>
    <trip id="truck315" type="truck_truck" depart="1742.57" departLane="best" departSpeed="max" from="256507659" to="23886552"/>
    <trip id="truck316" type="truck_truck" depart="1748.10" departLane="best" departSpeed="max" from="24905768" to="270376454"/>
    <trip id="truck317" type="truck_truck" depart="1753.64" departLane="best" departSpeed="max" from="24905768" to="24959390"/>
    <trip id="truck318" type="truck_truck" depart="1759.17" departLane="best" departSpeed="max" from="27853330" to="270376454"/>
    <trip id="truck319" type="truck_truck" depart="1764.70" departLane="best" departSpeed="max" from="132846158" to="270367419"/>
    <trip id="truck320" type="truck_truck" depart="1770.23" departLane="best" departSpeed="max" from="5081498#0" to="8094395"/>
    <trip id="truck321" type="truck_truck" depart="1775.76" departLane="best" departSpeed="max" from="132846158" to="270367419"/>
    <trip id="truck323" type="truck_truck" depart="1786.83" departLane="best" departSpeed="max" from="256507659" to="8094395"/>
    <trip id="truck328" type="truck_truck" depart="1814.49" departLane="best" departSpeed="max" from="135254875" to="160247335"/>
    <trip id="truck330" type="truck_truck" depart="1825.55" departLane="best" departSpeed="max" from="241498406" to="8094395"/>
    <trip id="truck335" type="truck_truck" depart="1853.21" departLane="best" departSpeed="max" from="135254875" to="24960346"/>
    <trip id="truck337" type="truck_truck" depart="1864.28" departLane="best" departSpeed="max" from="241498406" to="383821432"/>
    <trip id="truck338" type="truck_truck" depart="1869.81" departLane="best" departSpeed="max" from="135254875" to="24960346"/>
    <trip id="truck339" type="truck_truck" depart="1875.34" departLane="best" departSpeed="max" from="24960184" to="270367419"/>
    <trip id="truck341" type="truck_truck" depart="1886.40" departLane="best" departSpeed="max" from="5081498#0" to="270367419"/>
    <trip id="truck342" type="truck_truck" depart="1891.94" departLane="best" departSpeed="max" from="241498406" to="270367419"/>
    <trip id="truck344" type="truck_truck" depart="1903.00" departLane="best" departSpeed="max" from="132846158" to="270367419"/>
    <trip id="truck345" type="truck_truck" depart="1908.53" departLane="best" departSpeed="max" from="241498406" to="383821432"/>
    <trip id="truck347" type="truck_truck" depart="1919.60" departLane="best" departSpeed="max" from="256507659" to="270367419"/>
    <trip id="truck349" type="truck_truck" depart="1930.66" departLane="best" departSpeed="max" from="256507659" to="8094395"/>
    <trip id="truck351" type="truck_truck" depart="1941.72" departLane="best" departSpeed="max" from="24959485" to="270367419"/>
    <trip id="truck352" type="truck_truck" depart="1947.26" departLane="best" departSpeed="max" from="27853330" to="160247335"/>
    <trip id="truck354" type="truck_truck" depart="1958.32" departLane="best" departSpeed="max" from="24960184" to="8094395"/>
    <trip id="truck355" type="truck_truck" depart="1963.85" departLane="best" departSpeed="max" from="24960184" to="8094395"/>
    <trip id="truck357" type="truck_truck" depart="1974.92" departLane="best" departSpeed="max" from="4366988" to="270376454"/>
    <trip id="truck359" type="truck_truck" depart="1985.98" departLane="best" departSpeed="max" from="5081498#0" to="23886552"/>
    <trip id="truck364" type="truck_truck" depart="2013.64" departLane="best" departSpeed="max" from="256507659" to="270367419"/>
    <trip id="truck367" type="truck_truck" depart="2030.24" departLane="best" departSpeed="max" from="24960184" to="8094395"/>
    <trip id="truck370" type="truck_truck" depart="2046.83" departLane="best" departSpeed="max" from="24905768" to="24960346"/>
    <trip id="truck378" type="truck_truck" depart="2091.09" departLane="best" departSpeed="max" from="24905768" to="24960346"/>
    <trip id="truck380" type="truck_truck" depart="2102.15" departLane="best" departSpeed="max" from="24960184" to="8094395"/>
    <trip id="truck381" type="truck_truck" depart="2107.68" departLane="best" departSpeed="max" from="24905768" to="24960346"/>
    <trip id="truck383" type="truck_truck" depart="2118.75" departLane="best" departSpeed="max" from="256507659" to="270367419"/>
    <trip id="truck388" type="truck_truck" depart="2146.41" departLane="best" departSpeed="max" from="241498406" to="23886552"/>
    <trip id="truck392" type="truck_truck" depart="2168.54" departLane="best" departSpeed="max" from="241498406" to="23886552"/>
    <trip id="truck395" type="truck_truck" depart="2185.13" departLane="best" departSpeed="max" from="135254875" to="160247335"/>
    <trip id="truck403" type="truck_truck" depart="2229.39" departLane="best" departSpeed="max" from="132846158" to="270367419"/>
    <trip id="truck410" type="truck_truck" depart="2268.11" departLane="best" departSpeed="max" from="24959485" to="270367419"/>
    <trip id="truck414" type="truck_truck" depart="2290.24" departLane="best" departSpeed="max" from="24960184" to="270367419"/>
    <trip id="truck421" type="truck_truck" depart="2328.96" departLane="best" departSpeed="max" from="24905768" to="270376454"/>
    <trip id="truck425" type="truck_truck" depart="2351.09" departLane="best" departSpeed="max" from="241498406" to="23886552"/>
    <trip id="truck427" type="truck_truck" depart="2362.15" departLane="best" departSpeed="max" from="24905768" to="160247335"/>
    <trip id="truck431" type="truck_truck" depart="2384.28" departLane="best" departSpeed="max" from="24905768" to="270376454"/>
    <trip id="truck436" type="truck_truck" depart="2411.94" departLane="best" departSpeed="max" from="241498406" to="23886552"/>
    <trip id="truck439" type="truck_truck" depart="2428.54" departLane="best" departSpeed="max" from="135254875" to="24960346"/>
    <trip id="truck443" type="truck_truck" depart="2450.67" departLane="best" departSpeed="max" from="24960184" to="270367419"/>
    <trip id="truck444" type="truck_truck" depart="2456.20" departLane="best" departSpeed="max" from="135254875" to="160247335"/>
    <trip id="truck448" type="truck_truck" depart="2478.33" departLane="best" departSpeed="max" from="24905768" to="24959390"/>
    <trip id="truck449" type="truck_truck" depart="2483.86" departLane="best" departSpeed="max" from="24905768" to="24959390"/>
    <trip id="truck457" type="truck_truck" depart="2528.11" departLane="best" departSpeed="max" from="256507659" to="23886552"/>
    <trip id="truck459" type="truck_truck" depart="2539.18" departLane="best" departSpeed="max" from="27853330" to="270376454"/>
    <trip id="truck460" type="truck_truck" depart="2544.71" departLane="best" departSpeed="max" from="24960184" to="270367419"/>
    <trip id="truck461" type="truck_truck" depart="2550.24" departLane="best" departSpeed="max" from="256507659" to="23886552"/>
    <trip id="truck463" type="truck_truck" depart="2561.31" departLane="best" departSpeed="max" from="24905768" to="24959390"/>
    <trip id="truck473" type="truck_truck" depart="2616.63" departLane="best" departSpeed="max" from="135254875" to="160247335"/>
    <trip id="truck474" type="truck_truck" depart="2622.16" departLane="best" departSpeed="max" from="24905768" to="270376454"/>
    <trip id="truck477" type="truck_truck" depart="2638.75" departLane="best" departSpeed="max" from="135254875" to="24960346"/>
    <trip id="truck483" type="truck_truck" depart="2671.95" departLane="best" departSpeed="max" from="135254875" to="24960346"/>
    <trip id="truck487" type="truck_truck" depart="2694.07" departLane="best" departSpeed="max" from="4366988" to="270376454"/>
    <trip id="truck488" type="truck_truck" depart="2699.61" departLane="best" departSpeed="max" from="4366988" to="270376454"/>
    <trip id="truck490" type="truck_truck" depart="2710.67" departLane="best" departSpeed="max" from="24905768" to="24960346"/>
    <trip id="truck492" type="truck_truck" depart="2721.73" departLane="best" departSpeed="max" from="241498406" to="23886552"/>
    <trip id="truck494" type="truck_truck" depart="2732.80" departLane="best" departSpeed="max" from="135254875" to="270376454"/>
    <trip id="truck497" type="truck_truck" depart="2749.39" departLane="best" departSpeed="max" from="4366988" to="270376454"/>
    <trip id="truck504" type="truck_truck" depart="2788.12" departLane="best" departSpeed="max" from="5081498#0" to="8094395"/>
    <trip id="truck507" type="truck_truck" depart="2804.71" departLane="best" departSpeed="max" from="241498406" to="270367419"/>
    <trip id="truck511" type="truck_truck" depart="2826.84" departLane="best" departSpeed="max" from="5081498#0" to="23886552"/>
    <trip id="truck512" type="truck_truck" depart="2832.37" departLane="best" departSpeed="max" from="241498406" to="256507648"/>
    <trip id="truck513" type="truck_truck" depart="2837.90" departLane="best" departSpeed="max" from="24905768" to="160247335"/>
    <trip id="truck515" type="truck_truck" depart="2848.97" departLane="best" departSpeed="max" from="241498406" to="8094395"/>
    <trip id="truck516" type="truck_truck" depart="2854.50" departLane="best" departSpeed="max" from="24905768" to="160247335"/>
    <trip id="truck517" type="truck_truck" depart="2860.03" departLane="best" departSpeed="max" from="4366988" to="270376454"/>
    <trip id="truck518" type="truck_truck" depart="2865.56" departLane="best" departSpeed="max" from="135254875" to="270376454"/>
    <trip id="truck521" type="truck_truck" depart="2882.16" departLane="best" departSpeed="max" from="24905768" to="160247335"/>
    <trip id="truck524" type="truck_truck" depart="2898.76" departLane="best" departSpeed="max" from="5081498#0" to="270367419"/>
    <trip id="truck526" type="truck_truck" depart="2909.82" departLane="best" departSpeed="max" from="241498406" to="23886552"/>
    <trip id="truck527" type="truck_truck" depart="2915.35" departLane="best" departSpeed="max" from="24959485" to="270367419"/>
    <trip id="truck531" type="truck_truck" depart="2937.48" departLane="best" departSpeed="max" from="256507659" to="8094395"/>
    <trip id="truck534" type="truck_truck" depart="2954.08" departLane="best" departSpeed="max" from="27853330" to="270376454"/>
    <trip id="truck535" type="truck_truck" depart="2959.61" departLane="best" departSpeed="max" from="24905768" to="160247335"/>
    <trip id="truck541" type="truck_truck" depart="2992.80" departLane="best" departSpeed="max" from="24960184" to="8094395"/>
    <trip id="truck545" type="truck_truck" depart="3014.93" departLane="best" departSpeed="max" from="135254875" to="24960346"/>
    <trip id="truck546" type="truck_truck" depart="3020.46" departLane="best" departSpeed="max" from="4366988" to="270376454"/>
    <trip id="truck549" type="truck_truck" depart="3037.06" departLane="best" departSpeed="max" from="27853330" to="160247335"/>
    <trip id="truck551" type="truck_truck" depart="3048.12" departLane="best" departSpeed="max" from="132846158" to="270367419"/>
    <trip id="truck553" type="truck_truck" depart="3059.18" departLane="best" departSpeed="max" from="24905768" to="160247335"/>
    <trip id="truck556" type="truck_truck" depart="3075.78" departLane="best" departSpeed="max" from="5081498#0" to="8094395"/>
    <trip id="truck557" type="truck_truck" depart="3081.31" departLane="best" departSpeed="max" from="132846158" to="270367419"/>
    <trip id="truck559" type="truck_truck" depart="3092.38" departLane="best" departSpeed="max" from="256507659" to="8094395"/>
    <trip id="truck561" type="truck_truck" depart="3103.44" departLane="best" departSpeed="max" from="27853330" to="160247335"/>
    <trip id="truck563" type="truck_truck" depart="3114.50" departLane="best" departSpeed="max" from="24905768" to="24960346"/>
    <trip id="truck564" type="truck_truck" depart="3120.04" departLane="best" departSpeed="max" from="24960184" to="270367419"/>