<?xml version="1.0" encoding="UTF-8"?>

<!-- generated on 2024-05-10 11:02:42.938320 by osmWebWizard.py v1_19_0+0000-baa66a0f364
<configuration>
    <net-file value="F:\SUMO\OptimalEmission-SUMO-ReinforcementLearning\2024-05-10-11-02-31\osm.net.xml.gz"/>
    <output-trip-file value="F:\SUMO\OptimalEmission-SUMO-ReinforcementLearning\2024-05-10-11-02-31\osm.passenger.trips.xml"/>
    <route-file value="F:\SUMO\OptimalEmission-SUMO-ReinforcementLearning\2024-05-10-11-02-31\osm.passenger.rou.xml"/>
    <prefix value="veh"/>
    <trip-attributes value="departLane=&quot;best&quot;"/>
    <fringe-start-attributes value="departSpeed=&quot;max&quot;"/>
    <vehicle-class value="passenger"/>
    <lanes value="True"/>
    <fringe-factor value="5"/>
    <allow-fringe.min-length value="1000.0"/>
    <via-edge-types value="highway.motorway,highway.motorway_link,highway.trunk_link,highway.primary_link,highway.secondary_link,highway.tertiary_link"/>
    <min-distance value="300.0"/>
    <min-distance.fringe value="10.0"/>
    <remove-loops value="True"/>
    <validate value="True"/>
    <end value="60000.0"/>
    <insertion-density value="12.0"/>
</configuration>
-->

<!-- generated on 2024-05-10 11:02:42 by Eclipse SUMO duarouter Version 1.19.0
<configuration xmlns:xsi="http://www.w3.org/2001/XMLSchema-instance" xsi:noNamespaceSchemaLocation="http://sumo.dlr.de/xsd/duarouterConfiguration.xsd">

    <input>
        <net-file value="F:\SUMO\OptimalEmission-SUMO-ReinforcementLearning\2024-05-10-11-02-31\osm.net.xml.gz"/>
        <route-files value="F:\SUMO\OptimalEmission-SUMO-ReinforcementLearning\2024-05-10-11-02-31\osm.passenger.trips.xml"/>
    </input>

    <output>
        <output-file value="F:\SUMO\OptimalEmission-SUMO-ReinforcementLearning\2024-05-10-11-02-31\osm.passenger.trips.xml.tmp"/>
        <alternatives-output value="NUL"/>
        <write-trips value="true"/>
    </output>

    <processing>
        <remove-loops value="true"/>
    </processing>

    <time>
        <begin value="0.0"/>
        <end value="60000.0"/>
    </time>

    <report>
        <no-warnings value="true"/>
        <ignore-errors value="true"/>
        <no-step-log value="true"/>
    </report>

</configuration>
-->

<routes xmlns:xsi="http://www.w3.org/2001/XMLSchema-instance" xsi:noNamespaceSchemaLocation="http://sumo.dlr.de/xsd/routes_file.xsd">
    <vType id="veh_passenger" vClass="passenger"/>
    <trip id="veh4" type="veh_passenger" depart="14.75" departLane="best" departSpeed="max" from="24905768" to="160247335"/>
    <trip id="veh5" type="veh_passenger" depart="18.44" departLane="best" departSpeed="max" from="241498406" to="270367419"/>
    <trip id="veh7" type="veh_passenger" depart="25.82" departLane="best" departSpeed="max" from="24960184" to="270367419"/>
    <trip id="veh8" type="veh_passenger" depart="29.50" departLane="best" departSpeed="max" from="241498406" to="270367419"/>
    <trip id="veh9" type="veh_passenger" depart="33.19" departLane="best" departSpeed="max" from="27853330" to="160247335"/>
    <trip id="veh10" type="veh_passenger" depart="36.88" departLane="best" departSpeed="max" from="27853330" to="270376454"/>
    <trip id="veh14" type="veh_passenger" depart="51.63" departLane="best" departSpeed="max" from="27853330" to="270376454"/>
    <trip id="veh16" type="veh_passenger" depart="59.01" departLane="best" departSpeed="max" from="27853330" to="270376454"/>
    <trip id="veh20" type="veh_passenger" depart="73.76" departLane="best" departSpeed="max" from="135254875" to="24960346"/>
    <trip id="veh21" type="veh_passenger" depart="77.45" departLane="best" departSpeed="max" from="135254875" to="24960346"/>
    <trip id="veh23" type="veh_passenger" depart="84.82" departLane="best" departSpeed="max" from="24905768" to="24959390"/>
    <trip id="veh24" type="veh_passenger" depart="88.51" departLane="best" departSpeed="max" from="241498406" to="8094395"/>
    <trip id="veh25" type="veh_passenger" depart="92.20" departLane="best" departSpeed="max" from="24960184" to="270367419"/>
    <trip id="veh26" type="veh_passenger" depart="95.89" departLane="best" departSpeed="max" from="241498406" to="256507648"/>
    <trip id="veh28" type="veh_passenger" depart="103.26" departLane="best" departSpeed="max" from="24905768" to="270376454"/>
    <trip id="veh29" type="veh_passenger" depart="106.95" departLane="best" departSpeed="max" from="27853330" to="270376454"/>
    <trip id="veh32" type="veh_passenger" depart="118.02" departLane="best" departSpeed="max" from="241498406" to="8094395"/>
    <trip id="veh33" type="veh_passenger" depart="121.70" departLane="best" departSpeed="max" from="24960184" to="270367419"/>
    <trip id="veh36" type="veh_passenger" depart="132.77" departLane="best" departSpeed="max" from="24905768" to="24960346"/>
    <trip id="veh38" type="veh_passenger" depart="140.14" departLane="best" departSpeed="max" from="24905768" to="24959390"/>
    <trip id="veh39" type="veh_passenger" depart="143.83" departLane="best" departSpeed="max" from="5081498#0" to="270367419"/>
    <trip id="veh40" type="veh_passenger" depart="147.52" departLane="best" departSpeed="max" from="135254875" to="160247335"/>
    <trip id="veh41" type="veh_passenger" depart="151.21" departLane="best" departSpeed="max" from="135254875" to="270376454"/>
    <trip id="veh44" type="veh_passenger" depart="162.27" departLane="best" departSpeed="max" from="5081498#0" to="270367419"/>
    <trip id="veh46" type="veh_passenger" depart="169.65" departLane="best" departSpeed="max" from="24960184" to="270367419"/>
    <trip id="veh50" type="veh_passenger" depart="184.40" departLane="best" departSpeed="max" from="24905768" to="24959390"/>
    <trip id="veh52" type="veh_passenger" depart="191.78" departLane="best" departSpeed="max" from="256507659" to="270367419"/>
    <trip id="veh53" type="veh_passenger" depart="195.46" departLane="best" departSpeed="max" from="256507659" to="270367419"/>
    <trip id="veh55" type="veh_passenger" depart="202.84" departLane="best" departSpeed="max" from="4366988" to="270376454"/>
    <trip id="veh60" type="veh_passenger" depart="221.28" departLane="best" departSpeed="max" from="256507659" to="23886552"/>
    <trip id="veh61" type="veh_passenger" depart="224.97" departLane="best" departSpeed="max" from="241498406" to="383821432"/>
    <trip id="veh62" type="veh_passenger" depart="228.66" departLane="best" departSpeed="max" from="24905768" to="24959390"/>
    <trip id="veh63" type="veh_passenger" depart="232.34" departLane="best" departSpeed="max" from="24905768" to="270376454"/>
    <trip id="veh64" type="veh_passenger" depart="236.03" departLane="best" departSpeed="max" from="241498406" to="256507648"/>
    <trip id="veh66" type="veh_passenger" depart="243.41" departLane="best" departSpeed="max" from="241498406" to="270367419"/>
    <trip id="veh69" type="veh_passenger" depart="254.47" departLane="best" departSpeed="max" from="241498406" to="383821432"/>
    <trip id="veh70" type="veh_passenger" depart="258.16" departLane="best" departSpeed="max" from="241498406" to="23886552"/>
    <trip id="veh71" type="veh_passenger" depart="261.85" departLane="best" departSpeed="max" from="5081498#0" to="270367419"/>
    <trip id="veh72" type="veh_passenger" depart="265.53" departLane="best" departSpeed="max" from="24905768" to="270376454"/>
    <trip id="veh76" type="veh_passenger" depart="280.29" departLane="best" departSpeed="max" from="5081498#0" to="23886552"/>
    <trip id="veh79" type="veh_passenger" depart="291.35" departLane="best" departSpeed="max" from="241498406" to="270367419"/>
    <trip id="veh80" type="veh_passenger" depart="295.04" departLane="best" departSpeed="max" from="24905768" to="24960346"/>
    <trip id="veh81" type="veh_passenger" depart="298.73" departLane="best" departSpeed="max" from="241498406" to="8094395"/>
    <trip id="veh83" type="veh_passenger" depart="306.10" departLane="best" departSpeed="max" from="24905768" to="160247335"/>
    <trip id="veh85" type="veh_passenger" depart="313.48" departLane="best" departSpeed="max" from="5081498#0" to="8094395"/>
    <trip id="veh87" type="veh_passenger" depart="320.85" departLane="best" departSpeed="max" from="24905768" to="24959390"/>
    <trip id="veh88" type="veh_passenger" depart="324.54" departLane="best" departSpeed="max" from="24905768" to="160247335"/>
    <trip id="veh90" type="veh_passenger" depart="331.92" departLane="best" departSpeed="max" from="5081498#0" to="8094395"/>
    <trip id="veh91" type="veh_passenger" depart="335.61" departLane="best" departSpeed="max" from="24905768" to="270376454"/>
    <trip id="veh93" type="veh_passenger" depart="342.98" departLane="best" departSpeed="max" from="5081498#0" to="270367419"/>
    <trip id="veh94" type="veh_passenger" depart="346.67" departLane="best" departSpeed="max" from="24905768" to="270376454"/>
    <trip id="veh95" type="veh_passenger" depart="350.36" departLane="best" departSpeed="max" from="132846158" to="270367419"/>
    <trip id="veh97" type="veh_passenger" depart="357.73" departLane="best" departSpeed="max" from="241498406" to="8094395"/>
    <trip id="veh99" type="veh_passenger" depart="365.11" departLane="best" departSpeed="max" from="241498406" to="23886552"/>
    <trip id="veh103" type="veh_passenger" depart="379.86" departLane="best" departSpeed="max" from="241498406" to="270367419"/>
    <trip id="veh105" type="veh_passenger" depart="387.24" departLane="best" departSpeed="max" from="5081498#0" to="8094395"/>
    <trip id="veh106" type="veh_passenger" depart="390.93" departLane="best" departSpeed="max" from="241498406" to="8094395"/>
    <trip id="veh107" type="veh_passenger" depart="394.61" departLane="best" departSpeed="max" from="24905768" to="24959390"/>
    <trip id="veh108" type="veh_passenger" depart="398.30" departLane="best" departSpeed="max" from="27853330" to="270376454"/>
    <trip id="veh110" type="veh_passenger" depart="405.68" departLane="best" departSpeed="max" from="24960184" to="8094395"/>
    <trip id="veh113" type="veh_passenger" depart="416.74" departLane="best" departSpeed="max" from="241498406" to="270367419"/>
    <trip id="veh117" type="veh_passenger" depart="431.49" departLane="best" departSpeed="max" from="24905768" to="24960346"/>
    <trip id="veh120" type="veh_passenger" depart="442.56" departLane="best" departSpeed="max" from="256507659" to="270367419"/>
    <trip id="veh121" type="veh_passenger" depart="446.25" departLane="best" departSpeed="max" from="24905768" to="160247335"/>
    <trip id="veh125" type="veh_passenger" depart="461.00" departLane="best" departSpeed="max" from="241498406" to="23886552"/>
    <trip id="veh126" type="veh_passenger" depart="464.69" departLane="best" departSpeed="max" from="241498406" to="383821432"/>
    <trip id="veh129" type="veh_passenger" depart="475.75" departLane="best" departSpeed="max" from="241498406" to="23886552"/>
    <trip id="veh130" type="veh_passenger" depart="479.44" departLane="best" departSpeed="max" from="24905768" to="270376454"/>
    <trip id="veh131" type="veh_passenger" depart="483.13" departLane="best" departSpeed="max" from="241498406" to="8094395"/>
    <trip id="veh135" type="veh_passenger" depart="497.88" departLane="best" departSpeed="max" from="241498406" to="8094395"/>
    <trip id="veh137" type="veh_passenger" depart="505.25" departLane="best" departSpeed="max" from="24905768" to="24960346"/>
    <trip id="veh140" type="veh_passenger" depart="516.32" departLane="best" departSpeed="max" from="241498406" to="383821432"/>
    <trip id="veh142" type="veh_passenger" depart="523.69" departLane="best" departSpeed="max" from="24959485" to="270367419"/>
    <trip id="veh143" type="veh_passenger" depart="527.38" departLane="best" departSpeed="max" from="5081498#0" to="270367419"/>
    <trip id="veh144" type="veh_passenger" depart="531.07" departLane="best" departSpeed="max" from="5081498#0" to="23886552"/>
    <trip id="veh148" type="veh_passenger" depart="545.82" departLane="best" departSpeed="max" from="24959485" to="270367419"/>
    <trip id="veh149" type="veh_passenger" depart="549.51" departLane="best" departSpeed="max" from="24905768" to="270376454"/>
    <trip id="veh151" type="veh_passenger" depart="556.89" departLane="best" departSpeed="max" from="24905768" to="160247335"/>
    <trip id="veh153" type="veh_passenger" depart="564.26" departLane="best" departSpeed="max" from="241498406" to="383821432"/>
    <trip id="veh155" type="veh_passenger" depart="571.64" departLane="best" departSpeed="max" from="241498406" to="270367419"/>
    <trip id="veh156" type="veh_passenger" depart="575.33" departLane="best" departSpeed="max" from="24905768" to="24960346"/>
    <trip id="veh159" type="veh_passenger" depart="586.39" departLane="best" departSpeed="max" from="4366988" to="270376454"/>
    <trip id="veh160" type="veh_passenger" depart="590.08" departLane="best" departSpeed="max" from="241498406" to="270367419"/>
    <trip id="veh162" type="veh_passenger" depart="597.45" departLane="best" departSpeed="max" from="24960184" to="270367419"/>
    <trip id="veh163" type="veh_passenger" depart="601.14" departLane="best" departSpeed="max" from="24905768" to="24959390"/>
    <trip id="veh168" type="veh_passenger" depart="619.58" departLane="best" departSpeed="max" from="27853330" to="270376454"/>
    <trip id="veh171" type="veh_passenger" depart="630.65" departLane="best" departSpeed="max" from="241498406" to="270367419"/>
    <trip id="veh172" type="veh_passenger" depart="634.33" departLane="best" departSpeed="max" from="27853330" to="160247335"/>
    <trip id="veh173" type="veh_passenger" depart="638.02" departLane="best" departSpeed="max" from="24905768" to="270376454"/>
    <trip id="veh174" type="veh_passenger" depart="641.71" departLane="best" departSpeed="max" from="24905768" to="24960346"/>
    <trip id="veh178" type="veh_passenger" depart="656.46" departLane="best" departSpeed="max" from="241498406" to="8094395"/>
    <trip id="veh179" type="veh_passenger" depart="660.15" departLane="best" departSpeed="max" from="24905768" to="160247335"/>
    <trip id="veh180" type="veh_passenger" depart="663.84" departLane="best" departSpeed="max" from="241498406" to="383821432"/>
    <trip id="veh181" type="veh_passenger" depart="667.53" departLane="best" departSpeed="max" from="24905768" to="270376454"/>
    <trip id="veh182" type="veh_passenger" depart="671.21" departLane="best" departSpeed="max" from="24960184" to="8094395"/>
    <trip id="veh184" type="veh_passenger" depart="678.59" departLane="best" departSpeed="max" from="256507659" to="270367419"/>
    <trip id="veh186" type="veh_passenger" depart="685.97" departLane="best" departSpeed="max" from="4366988" to="270376454"/>
    <trip id="veh187" type="veh_passenger" depart="689.65" departLane="best" departSpeed="max" from="24905768" to="24960346"/>
    <trip id="veh188" type="veh_passenger" depart="693.34" departLane="best" departSpeed="max" from="256507659" to="270367419"/>
    <trip id="veh190" type="veh_passenger" depart="700.72" departLane="best" departSpeed="max" from="135254875" to="24960346"/>
    <trip id="veh191" type="veh_passenger" depart="704.41" departLane="best" departSpeed="max" from="241498406" to="256507648"/>
    <trip id="veh194" type="veh_passenger" depart="715.47" departLane="best" departSpeed="max" from="24905768" to="24959390"/>
    <trip id="veh197" type="veh_passenger" depart="726.53" departLane="best" departSpeed="max" from="27853330" to="270376454"/>
    <trip id="veh198" type="veh_passenger" depart="730.22" departLane="best" departSpeed="max" from="24905768" to="160247335"/>
    <trip id="veh200" type="veh_passenger" depart="737.60" departLane="best" departSpeed="max" from="24905768" to="270376454"/>
    <trip id="veh202" type="veh_passenger" depart="744.97" departLane="best" departSpeed="max" from="24905768" to="160247335"/>
    <trip id="veh203" type="veh_passenger" depart="748.66" departLane="best" departSpeed="max" from="24905768" to="24959390"/>
    <trip id="veh209" type="veh_passenger" depart="770.79" departLane="best" departSpeed="max" from="241498406" to="256507648"/>
    <trip id="veh211" type="veh_passenger" depart="778.16" departLane="best" departSpeed="max" from="241498406" to="23886552"/>
    <trip id="veh212" type="veh_passenger" depart="781.85" departLane="best" departSpeed="max" from="132846158" to="270367419"/>
    <trip id="veh217" type="veh_passenger" depart="800.29" departLane="best" departSpeed="max" from="135254875" to="270376454"/>
    <trip id="veh218" type="veh_passenger" depart="803.98" departLane="best" departSpeed="max" from="24905768" to="24959390"/>
    <trip id="veh220" type="veh_passenger" depart="811.36" departLane="best" departSpeed="max" from="241498406" to="270367419"/>
    <trip id="veh221" type="veh_passenger" depart="815.04" departLane="best" departSpeed="max" from="256507659" to="23886552"/>
    <trip id="veh223" type="veh_passenger" depart="822.42" departLane="best" departSpeed="max" from="135254875" to="160247335"/>
    <trip id="veh224" type="veh_passenger" depart="826.11" departLane="best" departSpeed="max" from="5081498#0" to="270367419"/>
    <trip id="veh226" type="veh_passenger" depart="833.48" departLane="best" departSpeed="max" from="135254875" to="270376454"/>
    <trip id="veh231" type="veh_passenger" depart="851.92" departLane="best" departSpeed="max" from="27853330" to="270376454"/>
    <trip id="veh234" type="veh_passenger" depart="862.99" departLane="best" departSpeed="max" from="24960184" to="270367419"/>
    <trip id="veh235" type="veh_passenger" depart="866.68" departLane="best" departSpeed="max" from="256507659" to="8094395"/>
    <trip id="veh236" type="veh_passenger" depart="870.36" departLane="best" departSpeed="max" from="24905768" to="270376454"/>
    <trip id="veh237" type="veh_passenger" depart="874.05" departLane="best" departSpeed="max" from="241498406" to="383821432"/>
    <trip id="veh239" type="veh_passenger" depart="881.43" departLane="best" departSpeed="max" from="24905768" to="160247335"/>
    <trip id="veh241" type="veh_passenger" depart="888.80" departLane="best" departSpeed="max" from="241498406" to="383821432"/>
    <trip id="veh242" type="veh_passenger" depart="892.49" departLane="best" departSpeed="max" from="135254875" to="270376454"/>
    <trip id="veh243" type="veh_passenger" depart="896.18" departLane="best" departSpeed="max" from="24905768" to="270376454"/>
    <trip id="veh245" type="veh_passenger" depart="903.56" departLane="best" departSpeed="max" from="24905768" to="270376454"/>
    <trip id="veh246" type="veh_passenger" depart="907.24" departLane="best" departSpeed="max" from="24959485" to="270367419"/>
    <trip id="veh247" type="veh_passenger" depart="910.93" departLane="best" departSpeed="max" from="241498406" to="23886552"/>
    <trip id="veh248" type="veh_passenger" depart="914.62" departLane="best" departSpeed="max" from="241498406" to="23886552"/>
    <trip id="veh249" type="veh_passenger" depart="918.31" departLane="best" departSpeed="max" from="24905768" to="270376454"/>
    <trip id="veh251" type="veh_passenger" depart="925.68" departLane="best" departSpeed="max" from="24905768" to="270376454"/>
    <trip id="veh252" type="veh_passenger" depart="929.37" departLane="best" departSpeed="max" from="5081498#0" to="270367419"/>
    <trip id="veh253" type="veh_passenger" depart="933.06" departLane="best" departSpeed="max" from="241498406" to="23886552"/>
    <trip id="veh256" type="veh_passenger" depart="944.12" departLane="best" departSpeed="max" from="24905768" to="24960346"/>
    <trip id="veh257" type="veh_passenger" depart="947.81" departLane="best" departSpeed="max" from="5081498#0" to="270367419"/>
    <trip id="veh261" type="veh_passenger" depart="962.56" departLane="best" departSpeed="max" from="5081498#0" to="270367419"/>
    <trip id="veh263" type="veh_passenger" depart="969.94" departLane="best" departSpeed="max" from="135254875" to="270376454"/>
    <trip id="veh265" type="veh_passenger" depart="977.32" departLane="best" departSpeed="max" from="24905768" to="24960346"/>
    <trip id="veh266" type="veh_passenger" depart="981.00" departLane="best" departSpeed="max" from="5081498#0" to="23886552"/>
    <trip id="veh267" type="veh_passenger" depart="984.69" departLane="best" departSpeed="max" from="256507659" to="270367419"/>
    <trip id="veh271" type="veh_passenger" depart="999.44" departLane="best" departSpeed="max" from="24959485" to="270367419"/>
    <trip id="veh272" type="veh_passenger" depart="1003.13" departLane="best" departSpeed="max" from="256507659" to="8094395"/>
    <trip id="veh276" type="veh_passenger" depart="1017.88" departLane="best" departSpeed="max" from="132846158" to="270367419"/>
    <trip id="veh278" type="veh_passenger" depart="1025.26" departLane="best" departSpeed="max" from="24960184" to="270367419"/>
    <trip id="veh279" type="veh_passenger" depart="1028.95" departLane="best" departSpeed="max" from="24960184" to="8094395"/>
    <trip id="veh280" type="veh_passenger" depart="1032.64" departLane="best" departSpeed="max" from="27853330" to="270376454"/>
    <trip id="veh281" type="veh_passenger" depart="1036.32" departLane="best" departSpeed="max" from="24960184" to="8094395"/>
    <trip id="veh283" type="veh_passenger" depart="1043.70" departLane="best" departSpeed="max" from="27853330" to="160247335"/>
    <trip id="veh285" type="veh_passenger" depart="1051.08" departLane="best" departSpeed="max" from="256507659" to="270367419"/>
    <trip id="veh286" type="veh_passenger" depart="1054.76" departLane="best" departSpeed="max" from="241498406" to="23886552"/>
    <trip id="veh288" type="veh_passenger" depart="1062.14" departLane="best" departSpeed="max" from="5081498#0" to="270367419"/>
    <trip id="veh290" type="veh_passenger" depart="1069.52" departLane="best" departSpeed="max" from="132846158" to="270367419"/>
    <trip id="veh294" type="veh_passenger" depart="1084.27" departLane="best" departSpeed="max" from="5081498#0" to="8094395"/>
    <trip id="veh296" type="veh_passenger" depart="1091.64" departLane="best" departSpeed="max" from="24905768" to="270376454"/>
    <trip id="veh300" type="veh_passenger" depart="1106.40" departLane="best" departSpeed="max" from="241498406" to="256507648"/>
    <trip id="veh302" type="veh_passenger" depart="1113.77" departLane="best" departSpeed="max" from="241498406" to="8094395"/>
    <trip id="veh305" type="veh_passenger" depart="1124.84" departLane="best" departSpeed="max" from="241498406" to="8094395"/>
    <trip id="veh307" type="veh_passenger" depart="1132.21" departLane="best" departSpeed="max" from="241498406" to="256507648"/>
    <trip id="veh311" type="veh_passenger" depart="1146.96" departLane="best" departSpeed="max" from="24905768" to="270376454"/>
    <trip id="veh314" type="veh_passenger" depart="1158.03" departLane="best" departSpeed="max" from="241498406" to="270367419"/>
    <trip id="veh318" type="veh_passenger" depart="1172.78" departLane="best" departSpeed="max" from="256507659" to="270367419"/>
    <trip id="veh323" type="veh_passenger" depart="1191.22" departLane="best" departSpeed="max" from="24905768" to="270376454"/>
    <trip id="veh332" type="veh_passenger" depart="1224.41" departLane="best" departSpeed="max" from="5081498#0" to="270367419"/>
    <trip id="veh333" type="veh_passenger" depart="1228.10" departLane="best" departSpeed="max" from="132846158" to="270367419"/>
    <trip id="veh336" type="veh_passenger" depart="1239.16" departLane="best" departSpeed="max" from="256507659" to="270367419"/>
    <trip id="veh345" type="veh_passenger" depart="1272.35" departLane="best" departSpeed="max" from="256507659" to="270367419"/>
    <trip id="veh346" type="veh_passenger" depart="1276.04" departLane="best" departSpeed="max" from="135254875" to="270376454"/>
    <trip id="veh350" type="veh_passenger" depart="1290.79" departLane="best" departSpeed="max" from="241498406" to="256507648"/>
    <trip id="veh351" type="veh_passenger" depart="1294.48" departLane="best" departSpeed="max" from="241498406" to="270367419"/>
    <trip id="veh352" type="veh_passenger" depart="1298.17" departLane="best" departSpeed="max" from="24905768" to="270376454"/>
    <trip id="veh353" type="veh_passenger" depart="1301.86" departLane="best" departSpeed="max" from="241498406" to="23886552"/>
    <trip id="veh354" type="veh_passenger" depart="1305.55" departLane="best" departSpeed="max" from="4366988" to="270376454"/>
    <trip id="veh355" type="veh_passenger" depart="1309.23" departLane="best" departSpeed="max" from="241498406" to="383821432"/>
    <trip id="veh356" type="veh_passenger" depart="1312.92" departLane="best" departSpeed="max" from="241498406" to="270367419"/>
    <trip id="veh359" type="veh_passenger" depart="1323.99" departLane="best" departSpeed="max" from="4366988" to="270376454"/>
    <trip id="veh360" type="veh_passenger" depart="1327.67" departLane="best" departSpeed="max" from="241498406" to="270367419"/>
    <trip id="veh361" type="veh_passenger" depart="1331.36" departLane="best" departSpeed="max" from="241498406" to="270367419"/>
    <trip id="veh362" type="veh_passenger" depart="1335.05" departLane="best" departSpeed="max" from="24959485" to="270367419"/>
    <trip id="veh363" type="veh_passenger" depart="1338.74" departLane="best" departSpeed="max" from="241498406" to="270367419"/>
    <trip id="veh364" type="veh_passenger" depart="1342.43" departLane="best" departSpeed="max" from="24905768" to="24960346"/>
    <trip id="veh365" type="veh_passenger" depart="1346.11" departLane="best" departSpeed="max" from="24959485" to="270367419"/>
    <trip id="veh368" type="veh_passenger" depart="1357.18" departLane="best" departSpeed="max" from="241498406" to="270367419"/>
    <trip id="veh370" type="veh_passenger" depart="1364.55" departLane="best" departSpeed="max" from="132846158" to="270367419"/>
    <trip id="veh378" type="veh_passenger" depart="1394.06" departLane="best" departSpeed="max" from="256507659" to="23886552"/>
    <trip id="veh379" type="veh_passenger" depart="1397.75" departLane="best" departSpeed="max" from="241498406" to="23886552"/>
    <trip id="veh383" type="veh_passenger" depart="1412.50" departLane="best" departSpeed="max" from="27853330" to="270376454"/>
    <trip id="veh384" type="veh_passenger" depart="1416.19" departLane="best" departSpeed="max" from="241498406" to="23886552"/>
    <trip id="veh385" type="veh_passenger" depart="1419.87" departLane="best" departSpeed="max" from="5081498#0" to="23886552"/>
    <trip id="veh386" type="veh_passenger" depart="1423.56" departLane="best" departSpeed="max" from="256507659" to="8094395"/>
    <trip id="veh388" type="veh_passenger" depart="1430.94" departLane="best" departSpeed="max" from="24905768" to="270376454"/>
    <trip id="veh389" type="veh_passenger" depart="1434.63" departLane="best" departSpeed="max" from="132846158" to="270367419"/>
    <trip id="veh390" type="veh_passenger" depart="1438.31" departLane="best" departSpeed="max" from="24905768" to="270376454"/>
    <trip id="veh391" type="veh_passenger" depart="1442.00" departLane="best" departSpeed="max" from="24960184" to="270367419"/>
    <trip id="veh393" type="veh_passenger" depart="1449.38" departLane="best" departSpeed="max" from="135254875" to="24960346"/>
    <trip id="veh398" type="veh_passenger" depart="1467.82" departLane="best" departSpeed="max" from="241498406" to="270367419"/>
    <trip id="veh400" type="veh_passenger" depart="1475.19" departLane="best" departSpeed="max" from="241498406" to="270367419"/>
    <trip id="veh404" type="veh_passenger" depart="1489.95" departLane="best" departSpeed="max" from="5081498#0" to="270367419"/>
    <trip id="veh407" type="veh_passenger" depart="1501.01" departLane="best" departSpeed="max" from="135254875" to="270376454"/>
    <trip id="veh409" type="veh_passenger" depart="1508.39" departLane="best" departSpeed="max" from="241498406" to="23886552"/>
    <trip id="veh416" type="veh_passenger" depart="1534.20" departLane="best" departSpeed="max" from="241498406" to="383821432"/>
    <trip id="veh418" type="veh_passenger" depart="1541.58" departLane="best" departSpeed="max" from="241498406" to="23886552"/>
    <trip id="veh422" type="veh_passenger" depart="1556.33" departLane="best" departSpeed="max" from="241498406" to="256507648"/>
    <trip id="veh424" type="veh_passenger" depart="1563.71" departLane="best" departSpeed="max" from="256507659" to="270367419"/>
    <trip id="veh425" type="veh_passenger" depart="1567.39" departLane="best" departSpeed="max" from="256507659" to="270367419"/>
    <trip id="veh426" type="veh_passenger" depart="1571.08" departLane="best" departSpeed="max" from="256507659" to="270367419"/>
    <trip id="veh428" type="veh_passenger" depart="1578.46" departLane="best" departSpeed="max" from="24960184" to="270367419"/>
    <trip id="veh431" type="veh_passenger" depart="1589.52" departLane="best" departSpeed="max" from="24959485" to="270367419"/>
    <trip id="veh432" type="veh_passenger" depart="1593.21" departLane="best" departSpeed="max" from="241498406" to="8094395"/>
    <trip id="veh437" type="veh_passenger" depart="1611.65" departLane="best" departSpeed="max" from="24905768" to="24959390"/>
    <trip id="veh438" type="veh_passenger" depart="1615.34" departLane="best" departSpeed="max" from="241498406" to="270367419"/>
    <trip id="veh440" type="veh_passenger" depart="1622.71" departLane="best" departSpeed="max" from="24905768" to="270376454"/>
    <trip id="veh442" type="veh_passenger" depart="1630.09" departLane="best" departSpeed="max" from="135254875" to="270376454"/>
    <trip id="veh444" type="veh_passenger" depart="1637.47" departLane="best" departSpeed="max" from="24959485" to="270367419"/>
    <trip id="veh445" type="veh_passenger" depart="1641.15" departLane="best" departSpeed="max" from="241498406" to="23886552"/>