<?xml version="1.0" encoding="UTF-8"?>

<!-- generated on 2024-05-13 14:37:58.134232 by osmWebWizard.py v1_19_0+0000-baa66a0f364
<configuration>
    <net-file value="C:\Users\gusta\2024-05-13-14-37-47\osm.net.xml.gz"/>
    <output-trip-file value="C:\Users\gusta\2024-05-13-14-37-47\osm.bus.trips.xml"/>
    <route-file value="C:\Users\gusta\2024-05-13-14-37-47\osm.bus.rou.xml"/>
    <prefix value="bus"/>
    <trip-attributes value="departLane=&quot;best&quot;"/>
    <fringe-start-attributes value="departSpeed=&quot;max&quot;"/>
    <vehicle-class value="bus"/>
    <fringe-factor value="5"/>
    <vclass value="bus"/>
    <via-edge-types value="highway.motorway,highway.motorway_link,highway.trunk_link,highway.primary_link,highway.secondary_link,highway.tertiary_link"/>
    <min-distance value="600.0"/>
    <min-distance.fringe value="10.0"/>
    <remove-loops value="True"/>
    <validate value="True"/>
    <end value="60000.0"/>
    <insertion-density value="4.0"/>
</configuration>
-->

<!-- generated on 2024-05-13 14:37:57 by Eclipse SUMO duarouter Version 1.19.0
<configuration xmlns:xsi="http://www.w3.org/2001/XMLSchema-instance" xsi:noNamespaceSchemaLocation="http://sumo.dlr.de/xsd/duarouterConfiguration.xsd">

    <input>
        <net-file value="C:\Users\gusta\2024-05-13-14-37-47\osm.net.xml.gz"/>
        <route-files value="C:\Users\gusta\2024-05-13-14-37-47\osm.bus.trips.xml"/>
    </input>

    <output>
        <output-file value="C:\Users\gusta\2024-05-13-14-37-47\osm.bus.trips.xml.tmp"/>
        <alternatives-output value="NUL"/>
        <write-trips value="true"/>
    </output>

    <processing>
        <remove-loops value="true"/>
    </processing>

    <time>
        <begin value="0.0"/>
        <end value="60000.0"/>
    </time>

    <report>
        <no-warnings value="true"/>
        <ignore-errors value="true"/>
        <no-step-log value="true"/>
    </report>

</configuration>
-->

<routes xmlns:xsi="http://www.w3.org/2001/XMLSchema-instance" xsi:noNamespaceSchemaLocation="http://sumo.dlr.de/xsd/routes_file.xsd">
    <vType id="bus_bus" vClass="bus"/>
    <trip id="bus0" type="bus_bus" depart="0.00" departLane="best" departSpeed="max" from="370172556" to="304655091#2"/>
    <trip id="bus1" type="bus_bus" depart="15.09" departLane="best" departSpeed="max" from="825242665" to="305162873#1"/>
    <trip id="bus2" type="bus_bus" depart="30.18" departLane="best" departSpeed="max" from="370172556" to="304655091#2"/>
    <trip id="bus3" type="bus_bus" depart="45.27" departLane="best" departSpeed="max" from="370172556" to="304655091#2"/>
    <trip id="bus4" type="bus_bus" depart="60.36" departLane="best" departSpeed="max" from="825242665" to="305162873#1"/>
    <trip id="bus5" type="bus_bus" depart="75.45" departLane="best" departSpeed="max" from="825242665" to="305162873#1"/>
    <trip id="bus6" type="bus_bus" depart="90.54" departLane="best" departSpeed="max" from="370172556" to="304655091#2"/>
    <trip id="bus7" type="bus_bus" depart="105.63" departLane="best" departSpeed="max" from="370172556" to="304655091#2"/>
    <trip id="bus8" type="bus_bus" depart="120.72" departLane="best" departSpeed="max" from="825242665" to="305162873#1"/>
    <trip id="bus9" type="bus_bus" depart="135.81" departLane="best" departSpeed="max" from="825242665" to="305162873#1"/>
    <trip id="bus10" type="bus_bus" depart="150.90" departLane="best" departSpeed="max" from="825242665" to="305162873#1"/>
    <trip id="bus11" type="bus_bus" depart="165.99" departLane="best" departSpeed="max" from="825242665" to="305162873#1"/>
    <trip id="bus12" type="bus_bus" depart="181.08" departLane="best" departSpeed="max" from="825242665" to="305162873#1"/>
    <trip id="bus13" type="bus_bus" depart="196.17" departLane="best" departSpeed="max" from="370172556" to="304655091#2"/>
    <trip id="bus14" type="bus_bus" depart="211.26" departLane="best" departSpeed="max" from="370172556" to="304655091#2"/>
    <trip id="bus15" type="bus_bus" depart="226.35" departLane="best" departSpeed="max" from="370172556" to="304655091#2"/>
    <trip id="bus16" type="bus_bus" depart="241.44" departLane="best" departSpeed="max" from="370172556" to="304655091#2"/>
    <trip id="bus17" type="bus_bus" depart="256.53" departLane="best" departSpeed="max" from="825242665" to="305162873#1"/>
    <trip id="bus18" type="bus_bus" depart="271.62" departLane="best" departSpeed="max" from="370172556" to="304655091#2"/>
    <trip id="bus19" type="bus_bus" depart="286.70" departLane="best" departSpeed="max" from="825242665" to="305162873#1"/>
    <trip id="bus20" type="bus_bus" depart="301.79" departLane="best" departSpeed="max" from="825242665" to="305162873#1"/>
    <trip id="bus21" type="bus_bus" depart="316.88" departLane="best" departSpeed="max" from="825242665" to="305162873#1"/>
    <trip id="bus22" type="bus_bus" depart="331.97" departLane="best" departSpeed="max" from="370172556" to="304655091#2"/>
    <trip id="bus23" type="bus_bus" depart="347.06" departLane="best" departSpeed="max" from="370172556" to="304655091#2"/>
    <trip id="bus24" type="bus_bus" depart="362.15" departLane="best" departSpeed="max" from="370172556" to="304655091#2"/>
    <trip id="bus25" type="bus_bus" depart="377.24" departLane="best" departSpeed="max" from="825242665" to="305162873#1"/>
    <trip id="bus26" type="bus_bus" depart="392.33" departLane="best" departSpeed="max" from="370172556" to="304655091#2"/>
    <trip id="bus27" type="bus_bus" depart="407.42" departLane="best" departSpeed="max" from="825242665" to="305162873#1"/>
    <trip id="bus28" type="bus_bus" depart="422.51" departLane="best" departSpeed="max" from="370172556" to="304655091#2"/>
    <trip id="bus29" type="bus_bus" depart="437.60" departLane="best" departSpeed="max" from="370172556" to="304655091#2"/>
    <trip id="bus30" type="bus_bus" depart="452.69" departLane="best" departSpeed="max" from="825242665" to="305162873#1"/>
    <trip id="bus31" type="bus_bus" depart="467.78" departLane="best" departSpeed="max" from="825242665" to="305162873#1"/>
    <trip id="bus32" type="bus_bus" depart="482.87" departLane="best" departSpeed="max" from="825242665" to="305162873#1"/>
    <trip id="bus33" type="bus_bus" depart="497.96" departLane="best" departSpeed="max" from="370172556" to="304655091#2"/>
    <trip id="bus34" type="bus_bus" depart="513.05" departLane="best" departSpeed="max" from="825242665" to="305162873#1"/>
    <trip id="bus35" type="bus_bus" depart="528.14" departLane="best" departSpeed="max" from="825242665" to="305162873#1"/>
    <trip id="bus36" type="bus_bus" depart="543.23" departLane="best" departSpeed="max" from="825242665" to="305162873#1"/>
    <trip id="bus37" type="bus_bus" depart="558.32" departLane="best" departSpeed="max" from="370172556" to="304655091#2"/>
    <trip id="bus38" type="bus_bus" depart="573.41" departLane="best" departSpeed="max" from="825242665" to="305162873#1"/>
    <trip id="bus39" type="bus_bus" depart="588.50" departLane="best" departSpeed="max" from="370172556" to="304655091#2"/>
    <trip id="bus40" type="bus_bus" depart="603.59" departLane="best" departSpeed="max" from="825242665" to="305162873#1"/>
    <trip id="bus41" type="bus_bus" depart="618.68" departLane="best" departSpeed="max" from="370172556" to="304655091#2"/>
    <trip id="bus42" type="bus_bus" depart="633.77" departLane="best" departSpeed="max" from="370172556" to="304655091#2"/>
    <trip id="bus43" type="bus_bus" depart="648.86" departLane="best" departSpeed="max" from="825242665" to="305162873#1"/>
    <trip id="bus44" type="bus_bus" depart="663.95" departLane="best" departSpeed="max" from="370172556" to="304655091#2"/>
    <trip id="bus45" type="bus_bus" depart="679.04" departLane="best" departSpeed="max" from="825242665" to="305162873#1"/>
    <trip id="bus46" type="bus_bus" depart="694.13" departLane="best" departSpeed="max" from="370172556" to="304655091#2"/>
    <trip id="bus47" type="bus_bus" depart="709.22" departLane="best" departSpeed="max" from="370172556" to="304655091#2"/>
    <trip id="bus48" type="bus_bus" depart="724.31" departLane="best" departSpeed="max" from="370172556" to="304655091#2"/>
    <trip id="bus49" type="bus_bus" depart="739.40" departLane="best" departSpeed="max" from="825242665" to="305162873#1"/>
    <trip id="bus50" type="bus_bus" depart="754.49" departLane="best" departSpeed="max" from="370172556" to="304655091#2"/>
    <trip id="bus51" type="bus_bus" depart="769.58" departLane="best" departSpeed="max" from="370172556" to="304655091#2"/>
    <trip id="bus52" type="bus_bus" depart="784.67" departLane="best" departSpeed="max" from="825242665" to="305162873#1"/>
    <trip id="bus53" type="bus_bus" depart="799.76" departLane="best" departSpeed="max" from="370172556" to="304655091#2"/>
    <trip id="bus54" type="bus_bus" depart="814.85" departLane="best" departSpeed="max" from="370172556" to="304655091#2"/>
    <trip id="bus55" type="bus_bus" depart="829.94" departLane="best" departSpeed="max" from="370172556" to="304655091#2"/>
    <trip id="bus56" type="bus_bus" depart="845.03" departLane="best" departSpeed="max" from="825242665" to="305162873#1"/>
    <trip id="bus57" type="bus_bus" depart="860.11" departLane="best" departSpeed="max" from="825242665" to="305162873#1"/>
    <trip id="bus58" type="bus_bus" depart="875.20" departLane="best" departSpeed="max" from="370172556" to="304655091#2"/>
    <trip id="bus59" type="bus_bus" depart="890.29" departLane="best" departSpeed="max" from="370172556" to="304655091#2"/>
    <trip id="bus60" type="bus_bus" depart="905.38" departLane="best" departSpeed="max" from="370172556" to="304655091#2"/>
    <trip id="bus61" type="bus_bus" depart="920.47" departLane="best" departSpeed="max" from="825242665" to="305162873#1"/>
    <trip id="bus62" type="bus_bus" depart="935.56" departLane="best" departSpeed="max" from="825242665" to="305162873#1"/>
    <trip id="bus63" type="bus_bus" depart="950.65" departLane="best" departSpeed="max" from="370172556" to="304655091#2"/>
    <trip id="bus64" type="bus_bus" depart="965.74" departLane="best" departSpeed="max" from="825242665" to="305162873#1"/>
    <trip id="bus65" type="bus_bus" depart="980.83" departLane="best" departSpeed="max" from="825242665" to="305162873#1"/>
    <trip id="bus66" type="bus_bus" depart="995.92" departLane="best" departSpeed="max" from="825242665" to="305162873#1"/>
    <trip id="bus67" type="bus_bus" depart="1011.01" departLane="best" departSpeed="max" from="370172556" to="304655091#2"/>
    <trip id="bus68" type="bus_bus" depart="1026.10" departLane="best" departSpeed="max" from="825242665" to="305162873#1"/>
    <trip id="bus69" type="bus_bus" depart="1041.19" departLane="best" departSpeed="max" from="370172556" to="304655091#2"/>
    <trip id="bus70" type="bus_bus" depart="1056.28" departLane="best" departSpeed="max" from="825242665" to="305162873#1"/>
    <trip id="bus71" type="bus_bus" depart="1071.37" departLane="best" departSpeed="max" from="825242665" to="305162873#1"/>
    <trip id="bus72" type="bus_bus" depart="1086.46" departLane="best" departSpeed="max" from="370172556" to="304655091#2"/>
    <trip id="bus73" type="bus_bus" depart="1101.55" departLane="best" departSpeed="max" from="370172556" to="304655091#2"/>
    <trip id="bus74" type="bus_bus" depart="1116.64" departLane="best" departSpeed="max" from="825242665" to="305162873#1"/>
    <trip id="bus75" type="bus_bus" depart="1131.73" departLane="best" departSpeed="max" from="370172556" to="304655091#2"/>
    <trip id="bus76" type="bus_bus" depart="1146.82" departLane="best" departSpeed="max" from="825242665" to="305162873#1"/>
    <trip id="bus77" type="bus_bus" depart="1161.91" departLane="best" departSpeed="max" from="370172556" to="304655091#2"/>
    <trip id="bus78" type="bus_bus" depart="1177.00" departLane="best" departSpeed="max" from="825242665" to="305162873#1"/>
    <trip id="bus79" type="bus_bus" depart="1192.09" departLane="best" departSpeed="max" from="825242665" to="305162873#1"/>
    <trip id="bus80" type="bus_bus" depart="1207.18" departLane="best" departSpeed="max" from="825242665" to="305162873#1"/>
    <trip id="bus81" type="bus_bus" depart="1222.27" departLane="best" departSpeed="max" from="370172556" to="304655091#2"/>
    <trip id="bus82" type="bus_bus" depart="1237.36" departLane="best" departSpeed="max" from="370172556" to="304655091#2"/>
    <trip id="bus83" type="bus_bus" depart="1252.45" departLane="best" departSpeed="max" from="825242665" to="305162873#1"/>
    <trip id="bus84" type="bus_bus" depart="1267.54" departLane="best" departSpeed="max" from="370172556" to="304655091#2"/>
    <trip id="bus85" type="bus_bus" depart="1282.63" departLane="best" departSpeed="max" from="825242665" to="305162873#1"/>
    <trip id="bus86" type="bus_bus" depart="1297.72" departLane="best" departSpeed="max" from="825242665" to="305162873#1"/>
    <trip id="bus87" type="bus_bus" depart="1312.81" departLane="best" departSpeed="max" from="370172556" to="304655091#2"/>
    <trip id="bus88" type="bus_bus" depart="1327.90" departLane="best" departSpeed="max" from="825242665" to="305162873#1"/>
    <trip id="bus89" type="bus_bus" depart="1342.99" departLane="best" departSpeed="max" from="370172556" to="304655091#2"/>
    <trip id="bus90" type="bus_bus" depart="1358.08" departLane="best" departSpeed="max" from="825242665" to="305162873#1"/>
    <trip id="bus91" type="bus_bus" depart="1373.17" departLane="best" departSpeed="max" from="825242665" to="305162873#1"/>
    <trip id="bus92" type="bus_bus" depart="1388.26" departLane="best" departSpeed="max" from="825242665" to="305162873#1"/>
    <trip id="bus93" type="bus_bus" depart="1403.35" departLane="best" departSpeed="max" from="825242665" to="305162873#1"/>
    <trip id="bus94" type="bus_bus" depart="1418.43" departLane="best" departSpeed="max" from="825242665" to="305162873#1"/>
    <trip id="bus95" type="bus_bus" depart="1433.52" departLane="best" departSpeed="max" from="370172556" to="304655091#2"/>
    <trip id="bus96" type="bus_bus" depart="1448.61" departLane="best" departSpeed="max" from="370172556" to="304655091#2"/>
    <trip id="bus97" type="bus_bus" depart="1463.70" departLane="best" departSpeed="max" from="825242665" to="305162873#1"/>
    <trip id="bus98" type="bus_bus" depart="1478.79" departLane="best" departSpeed="max" from="370172556" to="304655091#2"/>
    <trip id="bus99" type="bus_bus" depart="1493.88" departLane="best" departSpeed="max" from="825242665" to="305162873#1"/>
    <trip id="bus100" type="bus_bus" depart="1508.97" departLane="best" departSpeed="max" from="825242665" to="305162873#1"/>
    <trip id="bus101" type="bus_bus" depart="1524.06" departLane="best" departSpeed="max" from="825242665" to="305162873#1"/>
    <trip id="bus102" type="bus_bus" depart="1539.15" departLane="best" departSpeed="max" from="370172556" to="304655091#2"/>
    <trip id="bus103" type="bus_bus" depart="1554.24" departLane="best" departSpeed="max" from="370172556" to="304655091#2"/>
    <trip id="bus104" type="bus_bus" depart="1569.33" departLane="best" departSpeed="max" from="370172556" to="304655091#2"/>
    <trip id="bus105" type="bus_bus" depart="1584.42" departLane="best" departSpeed="max" from="370172556" to="304655091#2"/>
    <trip id="bus106" type="bus_bus" depart="1599.51" departLane="best" departSpeed="max" from="825242665" to="305162873#1"/>
    <trip id="bus107" type="bus_bus" depart="1614.60" departLane="best" departSpeed="max" from="825242665" to="305162873#1"/>
    <trip id="bus108" type="bus_bus" depart="1629.69" departLane="best" departSpeed="max" from="370172556" to="304655091#2"/>
    <trip id="bus109" type="bus_bus" depart="1644.78" departLane="best" departSpeed="max" from="370172556" to="304655091#2"/>
    <trip id="bus110" type="bus_bus" depart="1659.87" departLane="best" departSpeed="max" from="825242665" to="305162873#1"/>
    <trip id="bus111" type="bus_bus" depart="1674.96" departLane="best" departSpeed="max" from="370172556" to="304655091#2"/>
    <trip id="bus112" type="bus_bus" depart="1690.05" departLane="best" departSpeed="max" from="370172556" to="304655091#2"/>
    <trip id="bus113" type="bus_bus" depart="1705.14" departLane="best" departSpeed="max" from="370172556" to="304655091#2"/>
    <trip id="bus114" type="bus_bus" depart="1720.23" departLane="best" departSpeed="max" from="825242665" to="305162873#1"/>
    <trip id="bus115" type="bus_bus" depart="1735.32" departLane="best" departSpeed="max" from="370172556" to="304655091#2"/>
    <trip id="bus116" type="bus_bus" depart="1750.41" departLane="best" departSpeed="max" from="825242665" to="305162873#1"/>
    <trip id="bus117" type="bus_bus" depart="1765.50" departLane="best" departSpeed="max" from="825242665" to="305162873#1"/>
    <trip id="bus118" type="bus_bus" depart="1780.59" departLane="best" departSpeed="max" from="825242665" to="305162873#1"/>
    <trip id="bus119" type="bus_bus" depart="1795.68" departLane="best" departSpeed="max" from="825242665" to="305162873#1"/>
    <trip id="bus120" type="bus_bus" depart="1810.77" departLane="best" departSpeed="max" from="825242665" to="305162873#1"/>
    <trip id="bus121" type="bus_bus" depart="1825.86" departLane="best" departSpeed="max" from="825242665" to="305162873#1"/>
    <trip id="bus122" type="bus_bus" depart="1840.95" departLane="best" departSpeed="max" from="370172556" to="304655091#2"/>
    <trip id="bus123" type="bus_bus" depart="1856.04" departLane="best" departSpeed="max" from="825242665" to="305162873#1"/>
    <trip id="bus124" type="bus_bus" depart="1871.13" departLane="best" departSpeed="max" from="370172556" to="304655091#2"/>
    <trip id="bus125" type="bus_bus" depart="1886.22" departLane="best" departSpeed="max" from="370172556" to="304655091#2"/>
    <trip id="bus126" type="bus_bus" depart="1901.31" departLane="best" departSpeed="max" from="370172556" to="304655091#2"/>
    <trip id="bus127" type="bus_bus" depart="1916.40" departLane="best" departSpeed="max" from="825242665" to="305162873#1"/>
    <trip id="bus128" type="bus_bus" depart="1931.49" departLane="best" departSpeed="max" from="825242665" to="305162873#1"/>
    <trip id="bus129" type="bus_bus" depart="1946.58" departLane="best" departSpeed="max" from="370172556" to="304655091#2"/>
    <trip id="bus130" type="bus_bus" depart="1961.67" departLane="best" departSpeed="max" from="825242665" to="305162873#1"/>
    <trip id="bus131" type="bus_bus" depart="1976.76" departLane="best" departSpeed="max" from="825242665" to="305162873#1"/>
    <trip id="bus132" type="bus_bus" depart="1991.84" departLane="best" departSpeed="max" from="370172556" to="304655091#2"/>
    <trip id="bus133" type="bus_bus" depart="2006.93" departLane="best" departSpeed="max" from="370172556" to="304655091#2"/>
    <trip id="bus134" type="bus_bus" depart="2022.02" departLane="best" departSpeed="max" from="370172556" to="304655091#2"/>
    <trip id="bus135" type="bus_bus" depart="2037.11" departLane="best" departSpeed="max" from="370172556" to="304655091#2"/>
    <trip id="bus136" type="bus_bus" depart="2052.20" departLane="best" departSpeed="max" from="370172556" to="304655091#2"/>
    <trip id="bus137" type="bus_bus" depart="2067.29" departLane="best" departSpeed="max" from="370172556" to="304655091#2"/>
    <trip id="bus138" type="bus_bus" depart="2082.38" departLane="best" departSpeed="max" from="370172556" to="304655091#2"/>
    <trip id="bus139" type="bus_bus" depart="2097.47" departLane="best" departSpeed="max" from="825242665" to="305162873#1"/>
    <trip id="bus140" type="bus_bus" depart="2112.56" departLane="best" departSpeed="max" from="370172556" to="304655091#2"/>
    <trip id="bus141" type="bus_bus" depart="2127.65" departLane="best" departSpeed="max" from="825242665" to="305162873#1"/>
    <trip id="bus142" type="bus_bus" depart="2142.74" departLane="best" departSpeed="max" from="825242665" to="305162873#1"/>
    <trip id="bus143" type="bus_bus" depart="2157.83" departLane="best" departSpeed="max" from="370172556" to="304655091#2"/>
    <trip id="bus144" type="bus_bus" depart="2172.92" departLane="best" departSpeed="max" from="825242665" to="305162873#1"/>
    <trip id="bus145" type="bus_bus" depart="2188.01" departLane="best" departSpeed="max" from="825242665" to="305162873#1"/>
    <trip id="bus146" type="bus_bus" depart="2203.10" departLane="best" departSpeed="max" from="370172556" to="304655091#2"/>
    <trip id="bus147" type="bus_bus" depart="2218.19" departLane="best" departSpeed="max" from="825242665" to="305162873#1"/>
    <trip id="bus148" type="bus_bus" depart="2233.28" departLane="best" departSpeed="max" from="825242665" to="305162873#1"/>
    <trip id="bus149" type="bus_bus" depart="2248.37" departLane="best" departSpeed="max" from="370172556" to="304655091#2"/>
    <trip id="bus150" type="bus_bus" depart="2263.46" departLane="best" departSpeed="max" from="825242665" to="305162873#1"/>
    <trip id="bus151" type="bus_bus" depart="2278.55" departLane="best" departSpeed="max" from="825242665" to="305162873#1"/>
    <trip id="bus152" type="bus_bus" depart="2293.64" departLane="best" departSpeed="max" from="825242665" to="305162873#1"/>
    <trip id="bus153" type="bus_bus" depart="2308.73" departLane="best" departSpeed="max" from="370172556" to="304655091#2"/>
    <trip id="bus154" type="bus_bus" depart="2323.82" departLane="best" departSpeed="max" from="825242665" to="305162873#1"/>
    <trip id="bus155" type="bus_bus" depart="2338.91" departLane="best" departSpeed="max" from="370172556" to="304655091#2"/>
    <trip id="bus156" type="bus_bus" depart="2354.00" departLane="best" departSpeed="max" from="370172556" to="304655091#2"/>
    <trip id="bus157" type="bus_bus" depart="2369.09" departLane="best" departSpeed="max" from="370172556" to="304655091#2"/>
    <trip id="bus158" type="bus_bus" depart="2384.18" departLane="best" departSpeed="max" from="825242665" to="305162873#1"/>
    <trip id="bus159" type="bus_bus" depart="2399.27" departLane="best" departSpeed="max" from="370172556" to="304655091#2"/>
    <trip id="bus160" type="bus_bus" depart="2414.36" departLane="best" departSpeed="max" from="825242665" to="305162873#1"/>
    <trip id="bus161" type="bus_bus" depart="2429.45" departLane="best" departSpeed="max" from="370172556" to="304655091#2"/>
    <trip id="bus162" type="bus_bus" depart="2444.54" departLane="best" departSpeed="max" from="370172556" to="304655091#2"/>
    <trip id="bus163" type="bus_bus" depart="2459.63" departLane="best" departSpeed="max" from="370172556" to="304655091#2"/>
    <trip id="bus164" type="bus_bus" depart="2474.72" departLane="best" departSpeed="max" from="825242665" to="305162873#1"/>
    <trip id="bus165" type="bus_bus" depart="2489.81" departLane="best" departSpeed="max" from="825242665" to="305162873#1"/>
    <trip id="bus166" type="bus_bus" depart="2504.90" departLane="best" departSpeed="max" from="370172556" to="304655091#2"/>
    <trip id="bus167" type="bus_bus" depart="2519.99" departLane="best" departSpeed="max" from="370172556" to="304655091#2"/>
    <trip id="bus168" type="bus_bus" depart="2535.08" departLane="best" departSpeed="max" from="370172556" to="304655091#2"/>
    <trip id="bus169" type="bus_bus" depart="2550.16" departLane="best" departSpeed="max" from="825242665" to="305162873#1"/>
    <trip id="bus170" type="bus_bus" depart="2565.25" departLane="best" departSpeed="max" from="825242665" to="305162873#1"/>
    <trip id="bus171" type="bus_bus" depart="2580.34" departLane="best" departSpeed="max" from="825242665" to="305162873#1"/>
    <trip id="bus172" type="bus_bus" depart="2595.43" departLane="best" departSpeed="max" from="370172556" to="304655091#2"/>
    <trip id="bus173" type="bus_bus" depart="2610.52" departLane="best" departSpeed="max" from="370172556" to="304655091#2"/>
    <trip id="bus174" type="bus_bus" depart="2625.61" departLane="best" departSpeed="max" from="370172556" to="304655091#2"/>
    <trip id="bus175" type="bus_bus" depart="2640.70" departLane="best" departSpeed="max" from="825242665" to="305162873#1"/>
    <trip id="bus176" type="bus_bus" depart="2655.79" departLane="best" departSpeed="max" from="825242665" to="305162873#1"/>
    <trip id="bus177" type="bus_bus" depart="2670.88" departLane="best" departSpeed="max" from="825242665" to="305162873#1"/>
    <trip id="bus178" type="bus_bus" depart="2685.97" departLane="best" departSpeed="max" from="825242665" to="305162873#1"/>
    <trip id="bus179" type="bus_bus" depart="2701.06" departLane="best" departSpeed="max" from="370172556" to="304655091#2"/>
    <trip id="bus180" type="bus_bus" depart="2716.15" departLane="best" departSpeed="max" from="825242665" to="305162873#1"/>
    <trip id="bus181" type="bus_bus" depart="2731.24" departLane="best" departSpeed="max" from="370172556" to="304655091#2"/>
    <trip id="bus182" type="bus_bus" depart="2746.33" departLane="best" departSpeed="max" from="825242665" to="305162873#1"/>
    <trip id="bus183" type="bus_bus" depart="2761.42" departLane="best" departSpeed="max" from="825242665" to="305162873#1"/>
    <trip id="bus184" type="bus_bus" depart="2776.51" departLane="best" departSpeed="max" from="370172556" to="304655091#2"/>
    <trip id="bus185" type="bus_bus" depart="2791.60" departLane="best" departSpeed="max" from="370172556" to="304655091#2"/>
    <trip id="bus186" type="bus_bus" depart="2806.69" departLane="best" departSpeed="max" from="370172556" to="304655091#2"/>
    <trip id="bus187" type="bus_bus" depart="2821.78" departLane="best" departSpeed="max" from="825242665" to="305162873#1"/>
    <trip id="bus188" type="bus_bus" depart="2836.87" departLane="best" departSpeed="max" from="825242665" to="305162873#1"/>
    <trip id="bus189" type="bus_bus" depart="2851.96" departLane="best" departSpeed="max" from="825242665" to="305162873#1"/>
    <trip id="bus190" type="bus_bus" depart="2867.05" departLane="best" departSpeed="max" from="370172556" to="304655091#2"/>
    <trip id="bus191" type="bus_bus" depart="2882.14" departLane="best" departSpeed="max" from="370172556" to="304655091#2"/>
    <trip id="bus192" type="bus_bus" depart="2897.23" departLane="best" departSpeed="max" from="825242665" to="305162873#1"/>
    <trip id="bus193" type="bus_bus" depart="2912.32" departLane="best" departSpeed="max" from="825242665" to="305162873#1"/>
    <trip id="bus194" type="bus_bus" depart="2927.41" departLane="best" departSpeed="max" from="370172556" to="304655091#2"/>
    <trip id="bus195" type="bus_bus" depart="2942.50" departLane="best" departSpeed="max" from="825242665" to="305162873#1"/>
    <trip id="bus196" type="bus_bus" depart="2957.59" departLane="best" departSpeed="max" from="370172556" to="304655091#2"/>
    <trip id="bus197" type="bus_bus" depart="2972.68" departLane="best" departSpeed="max" from="825242665" to="305162873#1"/>
    <trip id="bus198" type="bus_bus" depart="2987.77" departLane="best" departSpeed="max" from="825242665" to="305162873#1"/>
    <trip id="bus199" type="bus_bus" depart="3002.86" departLane="best" departSpeed="max" from="825242665" to="305162873#1"/>
    <trip id="bus200" type="bus_bus" depart="3017.95" departLane="best" departSpeed="max" from="370172556" to="304655091#2"/>
    <trip id="bus201" type="bus_bus" depart="3033.04" departLane="best" departSpeed="max" from="825242665" to="305162873#1"/>
    <trip id="bus202" type="bus_bus" depart="3048.13" departLane="best" departSpeed="max" from="825242665" to="305162873#1"/>
    <trip id="bus203" type="bus_bus" depart="3063.22" departLane="best" departSpeed="max" from="825242665" to="305162873#1"/>
    <trip id="bus204" type="bus_bus" depart="3078.31" departLane="best" departSpeed="max" from="825242665" to="305162873#1"/>
    <trip id="bus205" type="bus_bus" depart="3093.40" departLane="best" departSpeed="max" from="370172556" to="304655091#2"/>
    <trip id="bus206" type="bus_bus" depart="3108.49" departLane="best" departSpeed="max" from="825242665" to="305162873#1"/>
    <trip id="bus207" type="bus_bus" depart="3123.57" departLane="best" departSpeed="max" from="370172556" to="304655091#2"/>
    <trip id="bus208" type="bus_bus" depart="3138.66" departLane="best" departSpeed="max" from="825242665" to="305162873#1"/>
    <trip id="bus209" type="bus_bus" depart="3153.75" departLane="best" departSpeed="max" from="370172556" to="304655091#2"/>
    <trip id="bus210" type="bus_bus" depart="3168.84" departLane="best" departSpeed="max" from="825242665" to="305162873#1"/>
    <trip id="bus211" type="bus_bus" depart="3183.93" departLane="best" departSpeed="max" from="825242665" to="305162873#1"/>
    <trip id="bus212" type="bus_bus" depart="3199.02" departLane="best" departSpeed="max" from="825242665" to="305162873#1"/>
    <trip id="bus213" type="bus_bus" depart="3214.11" departLane="best" departSpeed="max" from="825242665" to="305162873#1"/>
    <trip id="bus214" type="bus_bus" depart="3229.20" departLane="best" departSpeed="max" from="825242665" to="305162873#1"/>
    <trip id="bus215" type="bus_bus" depart="3244.29" departLane="best" departSpeed="max" from="370172556" to="304655091#2"/>
    <trip id="bus216" type="bus_bus" depart="3259.38" departLane="best" departSpeed="max" from="825242665" to="305162873#1"/>
    <trip id="bus217" type="bus_bus" depart="3274.47" departLane="best" departSpeed="max" from="825242665" to="305162873#1"/>
    <trip id="bus218" type="bus_bus" depart="3289.56" departLane="best" departSpeed="max" from="825242665" to="305162873#1"/>
    <trip id="bus219" type="bus_bus" depart="3304.65" departLane="best" departSpeed="max" from="370172556" to="304655091#2"/>
    <trip id="bus220" type="bus_bus" depart="3319.74" departLane="best" departSpeed="max" from="825242665" to="305162873#1"/>
    <trip id="bus221" type="bus_bus" depart="3334.83" departLane="best" departSpeed="max" from="370172556" to="304655091#2"/>