<?xml version="1.0" encoding="UTF-8"?>

<!-- generated on 2024-05-13 14:38:04.516222 by osmWebWizard.py v1_19_0+0000-baa66a0f364
<configuration>
    <net-file value="C:\Users\gusta\2024-05-13-14-37-47\osm.net.xml.gz"/>
    <output-trip-file value="C:\Users\gusta\2024-05-13-14-37-47\osm.passenger.trips.xml"/>
    <route-file value="C:\Users\gusta\2024-05-13-14-37-47\osm.passenger.rou.xml"/>
    <prefix value="veh"/>
    <trip-attributes value="departLane=&quot;best&quot;"/>
    <fringe-start-attributes value="departSpeed=&quot;max&quot;"/>
    <vehicle-class value="passenger"/>
    <lanes value="True"/>
    <fringe-factor value="5"/>
    <allow-fringe.min-length value="1000.0"/>
    <via-edge-types value="highway.motorway,highway.motorway_link,highway.trunk_link,highway.primary_link,highway.secondary_link,highway.tertiary_link"/>
    <min-distance value="300.0"/>
    <min-distance.fringe value="10.0"/>
    <remove-loops value="True"/>
    <validate value="True"/>
    <end value="60000.0"/>
    <insertion-density value="12.0"/>
</configuration>
-->

<!-- generated on 2024-05-13 14:38:03 by Eclipse SUMO duarouter Version 1.19.0
<configuration xmlns:xsi="http://www.w3.org/2001/XMLSchema-instance" xsi:noNamespaceSchemaLocation="http://sumo.dlr.de/xsd/duarouterConfiguration.xsd">

    <input>
        <net-file value="C:\Users\gusta\2024-05-13-14-37-47\osm.net.xml.gz"/>
        <route-files value="C:\Users\gusta\2024-05-13-14-37-47\osm.passenger.trips.xml"/>
    </input>

    <output>
        <output-file value="C:\Users\gusta\2024-05-13-14-37-47\osm.passenger.trips.xml.tmp"/>
        <alternatives-output value="NUL"/>
        <write-trips value="true"/>
    </output>

    <processing>
        <remove-loops value="true"/>
    </processing>

    <time>
        <begin value="0.0"/>
        <end value="60000.0"/>
    </time>

    <report>
        <no-warnings value="true"/>
        <ignore-errors value="true"/>
        <no-step-log value="true"/>
    </report>

</configuration>
-->

<routes xmlns:xsi="http://www.w3.org/2001/XMLSchema-instance" xsi:noNamespaceSchemaLocation="http://sumo.dlr.de/xsd/routes_file.xsd">
    <vType id="veh_passenger" vClass="passenger"/>
    <trip id="veh0" type="veh_passenger" depart="0.00" departLane="best" departSpeed="max" from="370172556" to="304655091#2"/>
    <trip id="veh1" type="veh_passenger" depart="5.03" departLane="best" departSpeed="max" from="825242665" to="305162873#1"/>
    <trip id="veh2" type="veh_passenger" depart="10.06" departLane="best" departSpeed="max" from="370172556" to="304655091#2"/>
    <trip id="veh3" type="veh_passenger" depart="15.09" departLane="best" departSpeed="max" from="370172556" to="304655091#2"/>
    <trip id="veh4" type="veh_passenger" depart="20.12" departLane="best" departSpeed="max" from="825242665" to="305162873#1"/>
    <trip id="veh5" type="veh_passenger" depart="25.15" departLane="best" departSpeed="max" from="825242665" to="305162873#1"/>
    <trip id="veh6" type="veh_passenger" depart="30.18" departLane="best" departSpeed="max" from="370172556" to="304655091#2"/>
    <trip id="veh7" type="veh_passenger" depart="35.21" departLane="best" departSpeed="max" from="370172556" to="304655091#2"/>
    <trip id="veh8" type="veh_passenger" depart="40.24" departLane="best" departSpeed="max" from="825242665" to="305162873#1"/>
    <trip id="veh9" type="veh_passenger" depart="45.27" departLane="best" departSpeed="max" from="825242665" to="305162873#1"/>
    <trip id="veh10" type="veh_passenger" depart="50.30" departLane="best" departSpeed="max" from="825242665" to="305162873#1"/>
    <trip id="veh11" type="veh_passenger" depart="55.33" departLane="best" departSpeed="max" from="825242665" to="305162873#1"/>
    <trip id="veh12" type="veh_passenger" depart="60.36" departLane="best" departSpeed="max" from="825242665" to="305162873#1"/>
    <trip id="veh13" type="veh_passenger" depart="65.39" departLane="best" departSpeed="max" from="370172556" to="304655091#2"/>
    <trip id="veh14" type="veh_passenger" depart="70.42" departLane="best" departSpeed="max" from="370172556" to="304655091#2"/>
    <trip id="veh15" type="veh_passenger" depart="75.45" departLane="best" departSpeed="max" from="370172556" to="304655091#2"/>
    <trip id="veh16" type="veh_passenger" depart="80.48" departLane="best" departSpeed="max" from="370172556" to="304655091#2"/>
    <trip id="veh17" type="veh_passenger" depart="85.51" departLane="best" departSpeed="max" from="825242665" to="305162873#1"/>
    <trip id="veh18" type="veh_passenger" depart="90.54" departLane="best" departSpeed="max" from="370172556" to="304655091#2"/>
    <trip id="veh19" type="veh_passenger" depart="95.57" departLane="best" departSpeed="max" from="825242665" to="305162873#1"/>
    <trip id="veh20" type="veh_passenger" depart="100.60" departLane="best" departSpeed="max" from="825242665" to="305162873#1"/>
    <trip id="veh21" type="veh_passenger" depart="105.63" departLane="best" departSpeed="max" from="825242665" to="305162873#1"/>
    <trip id="veh22" type="veh_passenger" depart="110.66" departLane="best" departSpeed="max" from="370172556" to="304655091#2"/>
    <trip id="veh23" type="veh_passenger" depart="115.69" departLane="best" departSpeed="max" from="370172556" to="304655091#2"/>
    <trip id="veh24" type="veh_passenger" depart="120.72" departLane="best" departSpeed="max" from="370172556" to="304655091#2"/>
    <trip id="veh25" type="veh_passenger" depart="125.75" departLane="best" departSpeed="max" from="825242665" to="305162873#1"/>
    <trip id="veh26" type="veh_passenger" depart="130.78" departLane="best" departSpeed="max" from="370172556" to="304655091#2"/>
    <trip id="veh27" type="veh_passenger" depart="135.81" departLane="best" departSpeed="max" from="825242665" to="305162873#1"/>
    <trip id="veh28" type="veh_passenger" depart="140.84" departLane="best" departSpeed="max" from="370172556" to="304655091#2"/>
    <trip id="veh29" type="veh_passenger" depart="145.87" departLane="best" departSpeed="max" from="370172556" to="304655091#2"/>
    <trip id="veh30" type="veh_passenger" depart="150.90" departLane="best" departSpeed="max" from="825242665" to="305162873#1"/>
    <trip id="veh31" type="veh_passenger" depart="155.93" departLane="best" departSpeed="max" from="825242665" to="305162873#1"/>
    <trip id="veh32" type="veh_passenger" depart="160.96" departLane="best" departSpeed="max" from="825242665" to="305162873#1"/>
    <trip id="veh33" type="veh_passenger" depart="165.99" departLane="best" departSpeed="max" from="370172556" to="304655091#2"/>
    <trip id="veh34" type="veh_passenger" depart="171.02" departLane="best" departSpeed="max" from="825242665" to="305162873#1"/>
    <trip id="veh35" type="veh_passenger" depart="176.05" departLane="best" departSpeed="max" from="825242665" to="305162873#1"/>
    <trip id="veh36" type="veh_passenger" depart="181.08" departLane="best" departSpeed="max" from="825242665" to="305162873#1"/>
    <trip id="veh37" type="veh_passenger" depart="186.11" departLane="best" departSpeed="max" from="370172556" to="304655091#2"/>
    <trip id="veh38" type="veh_passenger" depart="191.14" departLane="best" departSpeed="max" from="825242665" to="305162873#1"/>
    <trip id="veh39" type="veh_passenger" depart="196.17" departLane="best" departSpeed="max" from="370172556" to="304655091#2"/>
    <trip id="veh40" type="veh_passenger" depart="201.20" departLane="best" departSpeed="max" from="825242665" to="305162873#1"/>
    <trip id="veh41" type="veh_passenger" depart="206.23" departLane="best" departSpeed="max" from="370172556" to="304655091#2"/>
    <trip id="veh42" type="veh_passenger" depart="211.26" departLane="best" departSpeed="max" from="370172556" to="304655091#2"/>
    <trip id="veh43" type="veh_passenger" depart="216.29" departLane="best" departSpeed="max" from="825242665" to="305162873#1"/>
    <trip id="veh44" type="veh_passenger" depart="221.32" departLane="best" departSpeed="max" from="370172556" to="304655091#2"/>
    <trip id="veh45" type="veh_passenger" depart="226.35" departLane="best" departSpeed="max" from="825242665" to="305162873#1"/>
    <trip id="veh46" type="veh_passenger" depart="231.38" departLane="best" departSpeed="max" from="370172556" to="304655091#2"/>
    <trip id="veh47" type="veh_passenger" depart="236.41" departLane="best" departSpeed="max" from="370172556" to="304655091#2"/>
    <trip id="veh48" type="veh_passenger" depart="241.44" departLane="best" departSpeed="max" from="370172556" to="304655091#2"/>
    <trip id="veh49" type="veh_passenger" depart="246.47" departLane="best" departSpeed="max" from="825242665" to="305162873#1"/>
    <trip id="veh50" type="veh_passenger" depart="251.50" departLane="best" departSpeed="max" from="370172556" to="304655091#2"/>
    <trip id="veh51" type="veh_passenger" depart="256.53" departLane="best" departSpeed="max" from="370172556" to="304655091#2"/>
    <trip id="veh52" type="veh_passenger" depart="261.56" departLane="best" departSpeed="max" from="825242665" to="305162873#1"/>
    <trip id="veh53" type="veh_passenger" depart="266.59" departLane="best" departSpeed="max" from="370172556" to="304655091#2"/>
    <trip id="veh54" type="veh_passenger" depart="271.62" departLane="best" departSpeed="max" from="370172556" to="304655091#2"/>
    <trip id="veh55" type="veh_passenger" depart="276.65" departLane="best" departSpeed="max" from="370172556" to="304655091#2"/>
    <trip id="veh56" type="veh_passenger" depart="281.68" departLane="best" departSpeed="max" from="825242665" to="305162873#1"/>
    <trip id="veh57" type="veh_passenger" depart="286.70" departLane="best" departSpeed="max" from="825242665" to="305162873#1"/>
    <trip id="veh58" type="veh_passenger" depart="291.73" departLane="best" departSpeed="max" from="370172556" to="304655091#2"/>
    <trip id="veh59" type="veh_passenger" depart="296.76" departLane="best" departSpeed="max" from="370172556" to="304655091#2"/>
    <trip id="veh60" type="veh_passenger" depart="301.79" departLane="best" departSpeed="max" from="370172556" to="304655091#2"/>
    <trip id="veh61" type="veh_passenger" depart="306.82" departLane="best" departSpeed="max" from="825242665" to="305162873#1"/>
    <trip id="veh62" type="veh_passenger" depart="311.85" departLane="best" departSpeed="max" from="825242665" to="305162873#1"/>
    <trip id="veh63" type="veh_passenger" depart="316.88" departLane="best" departSpeed="max" from="370172556" to="304655091#2"/>
    <trip id="veh64" type="veh_passenger" depart="321.91" departLane="best" departSpeed="max" from="825242665" to="305162873#1"/>
    <trip id="veh65" type="veh_passenger" depart="326.94" departLane="best" departSpeed="max" from="825242665" to="305162873#1"/>
    <trip id="veh66" type="veh_passenger" depart="331.97" departLane="best" departSpeed="max" from="825242665" to="305162873#1"/>
    <trip id="veh67" type="veh_passenger" depart="337.00" departLane="best" departSpeed="max" from="370172556" to="304655091#2"/>
    <trip id="veh68" type="veh_passenger" depart="342.03" departLane="best" departSpeed="max" from="825242665" to="305162873#1"/>
    <trip id="veh69" type="veh_passenger" depart="347.06" departLane="best" departSpeed="max" from="370172556" to="304655091#2"/>
    <trip id="veh70" type="veh_passenger" depart="352.09" departLane="best" departSpeed="max" from="825242665" to="305162873#1"/>
    <trip id="veh71" type="veh_passenger" depart="357.12" departLane="best" departSpeed="max" from="825242665" to="305162873#1"/>
    <trip id="veh72" type="veh_passenger" depart="362.15" departLane="best" departSpeed="max" from="370172556" to="304655091#2"/>
    <trip id="veh73" type="veh_passenger" depart="367.18" departLane="best" departSpeed="max" from="370172556" to="304655091#2"/>
    <trip id="veh74" type="veh_passenger" depart="372.21" departLane="best" departSpeed="max" from="825242665" to="305162873#1"/>
    <trip id="veh75" type="veh_passenger" depart="377.24" departLane="best" departSpeed="max" from="370172556" to="304655091#2"/>
    <trip id="veh76" type="veh_passenger" depart="382.27" departLane="best" departSpeed="max" from="825242665" to="305162873#1"/>
    <trip id="veh77" type="veh_passenger" depart="387.30" departLane="best" departSpeed="max" from="370172556" to="304655091#2"/>
    <trip id="veh78" type="veh_passenger" depart="392.33" departLane="best" departSpeed="max" from="825242665" to="305162873#1"/>
    <trip id="veh79" type="veh_passenger" depart="397.36" departLane="best" departSpeed="max" from="825242665" to="305162873#1"/>
    <trip id="veh80" type="veh_passenger" depart="402.39" departLane="best" departSpeed="max" from="825242665" to="305162873#1"/>
    <trip id="veh81" type="veh_passenger" depart="407.42" departLane="best" departSpeed="max" from="370172556" to="304655091#2"/>
    <trip id="veh82" type="veh_passenger" depart="412.45" departLane="best" departSpeed="max" from="370172556" to="304655091#2"/>
    <trip id="veh83" type="veh_passenger" depart="417.48" departLane="best" departSpeed="max" from="825242665" to="305162873#1"/>
    <trip id="veh84" type="veh_passenger" depart="422.51" departLane="best" departSpeed="max" from="370172556" to="304655091#2"/>
    <trip id="veh85" type="veh_passenger" depart="427.54" departLane="best" departSpeed="max" from="825242665" to="305162873#1"/>
    <trip id="veh86" type="veh_passenger" depart="432.57" departLane="best" departSpeed="max" from="825242665" to="305162873#1"/>
    <trip id="veh87" type="veh_passenger" depart="437.60" departLane="best" departSpeed="max" from="370172556" to="304655091#2"/>
    <trip id="veh88" type="veh_passenger" depart="442.63" departLane="best" departSpeed="max" from="825242665" to="305162873#1"/>
    <trip id="veh89" type="veh_passenger" depart="447.66" departLane="best" departSpeed="max" from="370172556" to="304655091#2"/>
    <trip id="veh90" type="veh_passenger" depart="452.69" departLane="best" departSpeed="max" from="825242665" to="305162873#1"/>
    <trip id="veh91" type="veh_passenger" depart="457.72" departLane="best" departSpeed="max" from="825242665" to="305162873#1"/>
    <trip id="veh92" type="veh_passenger" depart="462.75" departLane="best" departSpeed="max" from="825242665" to="305162873#1"/>
    <trip id="veh93" type="veh_passenger" depart="467.78" departLane="best" departSpeed="max" from="825242665" to="305162873#1"/>
    <trip id="veh94" type="veh_passenger" depart="472.81" departLane="best" departSpeed="max" from="825242665" to="305162873#1"/>
    <trip id="veh95" type="veh_passenger" depart="477.84" departLane="best" departSpeed="max" from="370172556" to="304655091#2"/>
    <trip id="veh96" type="veh_passenger" depart="482.87" departLane="best" departSpeed="max" from="370172556" to="304655091#2"/>
    <trip id="veh97" type="veh_passenger" depart="487.90" departLane="best" departSpeed="max" from="825242665" to="305162873#1"/>
    <trip id="veh98" type="veh_passenger" depart="492.93" departLane="best" departSpeed="max" from="370172556" to="304655091#2"/>
    <trip id="veh99" type="veh_passenger" depart="497.96" departLane="best" departSpeed="max" from="825242665" to="305162873#1"/>
    <trip id="veh100" type="veh_passenger" depart="502.99" departLane="best" departSpeed="max" from="825242665" to="305162873#1"/>
    <trip id="veh101" type="veh_passenger" depart="508.02" departLane="best" departSpeed="max" from="825242665" to="305162873#1"/>
    <trip id="veh102" type="veh_passenger" depart="513.05" departLane="best" departSpeed="max" from="370172556" to="304655091#2"/>
    <trip id="veh103" type="veh_passenger" depart="518.08" departLane="best" departSpeed="max" from="370172556" to="304655091#2"/>
    <trip id="veh104" type="veh_passenger" depart="523.11" departLane="best" departSpeed="max" from="370172556" to="304655091#2"/>
    <trip id="veh105" type="veh_passenger" depart="528.14" departLane="best" departSpeed="max" from="370172556" to="304655091#2"/>
    <trip id="veh106" type="veh_passenger" depart="533.17" departLane="best" departSpeed="max" from="825242665" to="305162873#1"/>
    <trip id="veh107" type="veh_passenger" depart="538.20" departLane="best" departSpeed="max" from="825242665" to="305162873#1"/>
    <trip id="veh108" type="veh_passenger" depart="543.23" departLane="best" departSpeed="max" from="370172556" to="304655091#2"/>
    <trip id="veh109" type="veh_passenger" depart="548.26" departLane="best" departSpeed="max" from="370172556" to="304655091#2"/>
    <trip id="veh110" type="veh_passenger" depart="553.29" departLane="best" departSpeed="max" from="825242665" to="305162873#1"/>
    <trip id="veh111" type="veh_passenger" depart="558.32" departLane="best" departSpeed="max" from="370172556" to="304655091#2"/>
    <trip id="veh112" type="veh_passenger" depart="563.35" departLane="best" departSpeed="max" from="370172556" to="304655091#2"/>
    <trip id="veh113" type="veh_passenger" depart="568.38" departLane="best" departSpeed="max" from="370172556" to="304655091#2"/>
    <trip id="veh114" type="veh_passenger" depart="573.41" departLane="best" departSpeed="max" from="825242665" to="305162873#1"/>
    <trip id="veh115" type="veh_passenger" depart="578.44" departLane="best" departSpeed="max" from="370172556" to="304655091#2"/>
    <trip id="veh116" type="veh_passenger" depart="583.47" departLane="best" departSpeed="max" from="825242665" to="305162873#1"/>
    <trip id="veh117" type="veh_passenger" depart="588.50" departLane="best" departSpeed="max" from="825242665" to="305162873#1"/>
    <trip id="veh118" type="veh_passenger" depart="593.53" departLane="best" departSpeed="max" from="825242665" to="305162873#1"/>
    <trip id="veh119" type="veh_passenger" depart="598.56" departLane="best" departSpeed="max" from="825242665" to="305162873#1"/>
    <trip id="veh120" type="veh_passenger" depart="603.59" departLane="best" departSpeed="max" from="825242665" to="305162873#1"/>
    <trip id="veh121" type="veh_passenger" depart="608.62" departLane="best" departSpeed="max" from="825242665" to="305162873#1"/>
    <trip id="veh122" type="veh_passenger" depart="613.65" departLane="best" departSpeed="max" from="370172556" to="304655091#2"/>
    <trip id="veh123" type="veh_passenger" depart="618.68" departLane="best" departSpeed="max" from="825242665" to="305162873#1"/>
    <trip id="veh124" type="veh_passenger" depart="623.71" departLane="best" departSpeed="max" from="370172556" to="304655091#2"/>
    <trip id="veh125" type="veh_passenger" depart="628.74" departLane="best" departSpeed="max" from="370172556" to="304655091#2"/>
    <trip id="veh126" type="veh_passenger" depart="633.77" departLane="best" departSpeed="max" from="370172556" to="304655091#2"/>
    <trip id="veh127" type="veh_passenger" depart="638.80" departLane="best" departSpeed="max" from="825242665" to="305162873#1"/>
    <trip id="veh128" type="veh_passenger" depart="643.83" departLane="best" departSpeed="max" from="825242665" to="305162873#1"/>
    <trip id="veh129" type="veh_passenger" depart="648.86" departLane="best" departSpeed="max" from="370172556" to="304655091#2"/>
    <trip id="veh130" type="veh_passenger" depart="653.89" departLane="best" departSpeed="max" from="825242665" to="305162873#1"/>
    <trip id="veh131" type="veh_passenger" depart="658.92" departLane="best" departSpeed="max" from="825242665" to="305162873#1"/>
    <trip id="veh132" type="veh_passenger" depart="663.95" departLane="best" departSpeed="max" from="370172556" to="304655091#2"/>
    <trip id="veh133" type="veh_passenger" depart="668.98" departLane="best" departSpeed="max" from="370172556" to="304655091#2"/>
    <trip id="veh134" type="veh_passenger" depart="674.01" departLane="best" departSpeed="max" from="370172556" to="304655091#2"/>
    <trip id="veh135" type="veh_passenger" depart="679.04" departLane="best" departSpeed="max" from="370172556" to="304655091#2"/>
    <trip id="veh136" type="veh_passenger" depart="684.07" departLane="best" departSpeed="max" from="370172556" to="304655091#2"/>
    <trip id="veh137" type="veh_passenger" depart="689.10" departLane="best" departSpeed="max" from="370172556" to="304655091#2"/>
    <trip id="veh138" type="veh_passenger" depart="694.13" departLane="best" departSpeed="max" from="370172556" to="304655091#2"/>
    <trip id="veh139" type="veh_passenger" depart="699.16" departLane="best" departSpeed="max" from="825242665" to="305162873#1"/>
    <trip id="veh140" type="veh_passenger" depart="704.19" departLane="best" departSpeed="max" from="370172556" to="304655091#2"/>
    <trip id="veh141" type="veh_passenger" depart="709.22" departLane="best" departSpeed="max" from="825242665" to="305162873#1"/>
    <trip id="veh142" type="veh_passenger" depart="714.25" departLane="best" departSpeed="max" from="825242665" to="305162873#1"/>
    <trip id="veh143" type="veh_passenger" depart="719.28" departLane="best" departSpeed="max" from="370172556" to="304655091#2"/>
    <trip id="veh144" type="veh_passenger" depart="724.31" departLane="best" departSpeed="max" from="825242665" to="305162873#1"/>
    <trip id="veh145" type="veh_passenger" depart="729.34" departLane="best" departSpeed="max" from="825242665" to="305162873#1"/>
    <trip id="veh146" type="veh_passenger" depart="734.37" departLane="best" departSpeed="max" from="370172556" to="304655091#2"/>
    <trip id="veh147" type="veh_passenger" depart="739.40" departLane="best" departSpeed="max" from="825242665" to="305162873#1"/>
    <trip id="veh148" type="veh_passenger" depart="744.43" departLane="best" departSpeed="max" from="825242665" to="305162873#1"/>
    <trip id="veh149" type="veh_passenger" depart="749.46" departLane="best" departSpeed="max" from="370172556" to="304655091#2"/>
    <trip id="veh150" type="veh_passenger" depart="754.49" departLane="best" departSpeed="max" from="825242665" to="305162873#1"/>
    <trip id="veh151" type="veh_passenger" depart="759.52" departLane="best" departSpeed="max" from="825242665" to="305162873#1"/>
    <trip id="veh152" type="veh_passenger" depart="764.55" departLane="best" departSpeed="max" from="825242665" to="305162873#1"/>
    <trip id="veh153" type="veh_passenger" depart="769.58" departLane="best" departSpeed="max" from="370172556" to="304655091#2"/>
    <trip id="veh154" type="veh_passenger" depart="774.61" departLane="best" departSpeed="max" from="825242665" to="305162873#1"/>
    <trip id="veh155" type="veh_passenger" depart="779.64" departLane="best" departSpeed="max" from="370172556" to="304655091#2"/>
    <trip id="veh156" type="veh_passenger" depart="784.67" departLane="best" departSpeed="max" from="370172556" to="304655091#2"/>
    <trip id="veh157" type="veh_passenger" depart="789.70" departLane="best" departSpeed="max" from="370172556" to="304655091#2"/>
    <trip id="veh158" type="veh_passenger" depart="794.73" departLane="best" departSpeed="max" from="825242665" to="305162873#1"/>
    <trip id="veh159" type="veh_passenger" depart="799.76" departLane="best" departSpeed="max" from="370172556" to="304655091#2"/>
    <trip id="veh160" type="veh_passenger" depart="804.79" departLane="best" departSpeed="max" from="825242665" to="305162873#1"/>
    <trip id="veh161" type="veh_passenger" depart="809.82" departLane="best" departSpeed="max" from="370172556" to="304655091#2"/>
    <trip id="veh162" type="veh_passenger" depart="814.85" departLane="best" departSpeed="max" from="370172556" to="304655091#2"/>
    <trip id="veh163" type="veh_passenger" depart="819.88" departLane="best" departSpeed="max" from="370172556" to="304655091#2"/>
    <trip id="veh164" type="veh_passenger" depart="824.91" departLane="best" departSpeed="max" from="825242665" to="305162873#1"/>
    <trip id="veh165" type="veh_passenger" depart="829.94" departLane="best" departSpeed="max" from="825242665" to="305162873#1"/>
    <trip id="veh166" type="veh_passenger" depart="834.97" departLane="best" departSpeed="max" from="370172556" to="304655091#2"/>
    <trip id="veh167" type="veh_passenger" depart="840.00" departLane="best" departSpeed="max" from="370172556" to="304655091#2"/>
    <trip id="veh168" type="veh_passenger" depart="845.03" departLane="best" departSpeed="max" from="370172556" to="304655091#2"/>
    <trip id="veh169" type="veh_passenger" depart="850.05" departLane="best" departSpeed="max" from="825242665" to="305162873#1"/>
    <trip id="veh170" type="veh_passenger" depart="855.08" departLane="best" departSpeed="max" from="825242665" to="305162873#1"/>
    <trip id="veh171" type="veh_passenger" depart="860.11" departLane="best" departSpeed="max" from="825242665" to="305162873#1"/>
    <trip id="veh172" type="veh_passenger" depart="865.14" departLane="best" departSpeed="max" from="370172556" to="304655091#2"/>
    <trip id="veh173" type="veh_passenger" depart="870.17" departLane="best" departSpeed="max" from="370172556" to="304655091#2"/>
    <trip id="veh174" type="veh_passenger" depart="875.20" departLane="best" departSpeed="max" from="370172556" to="304655091#2"/>
    <trip id="veh175" type="veh_passenger" depart="880.23" departLane="best" departSpeed="max" from="825242665" to="305162873#1"/>
    <trip id="veh176" type="veh_passenger" depart="885.26" departLane="best" departSpeed="max" from="825242665" to="305162873#1"/>
    <trip id="veh177" type="veh_passenger" depart="890.29" departLane="best" departSpeed="max" from="825242665" to="305162873#1"/>
    <trip id="veh178" type="veh_passenger" depart="895.32" departLane="best" departSpeed="max" from="825242665" to="305162873#1"/>
    <trip id="veh179" type="veh_passenger" depart="900.35" departLane="best" departSpeed="max" from="370172556" to="304655091#2"/>
    <trip id="veh180" type="veh_passenger" depart="905.38" departLane="best" departSpeed="max" from="825242665" to="305162873#1"/>
    <trip id="veh181" type="veh_passenger" depart="910.41" departLane="best" departSpeed="max" from="370172556" to="304655091#2"/>
    <trip id="veh182" type="veh_passenger" depart="915.44" departLane="best" departSpeed="max" from="825242665" to="305162873#1"/>
    <trip id="veh183" type="veh_passenger" depart="920.47" departLane="best" departSpeed="max" from="825242665" to="305162873#1"/>
    <trip id="veh184" type="veh_passenger" depart="925.50" departLane="best" departSpeed="max" from="370172556" to="304655091#2"/>
    <trip id="veh185" type="veh_passenger" depart="930.53" departLane="best" departSpeed="max" from="370172556" to="304655091#2"/>
    <trip id="veh186" type="veh_passenger" depart="935.56" departLane="best" departSpeed="max" from="370172556" to="304655091#2"/>
    <trip id="veh187" type="veh_passenger" depart="940.59" departLane="best" departSpeed="max" from="825242665" to="305162873#1"/>
    <trip id="veh188" type="veh_passenger" depart="945.62" departLane="best" departSpeed="max" from="825242665" to="305162873#1"/>
    <trip id="veh189" type="veh_passenger" depart="950.65" departLane="best" departSpeed="max" from="825242665" to="305162873#1"/>
    <trip id="veh190" type="veh_passenger" depart="955.68" departLane="best" departSpeed="max" from="370172556" to="304655091#2"/>
    <trip id="veh191" type="veh_passenger" depart="960.71" departLane="best" departSpeed="max" from="370172556" to="304655091#2"/>
    <trip id="veh192" type="veh_passenger" depart="965.74" departLane="best" departSpeed="max" from="825242665" to="305162873#1"/>
    <trip id="veh193" type="veh_passenger" depart="970.77" departLane="best" departSpeed="max" from="825242665" to="305162873#1"/>
    <trip id="veh194" type="veh_passenger" depart="975.80" departLane="best" departSpeed="max" from="370172556" to="304655091#2"/>
    <trip id="veh195" type="veh_passenger" depart="980.83" departLane="best" departSpeed="max" from="825242665" to="305162873#1"/>
    <trip id="veh196" type="veh_passenger" depart="985.86" departLane="best" departSpeed="max" from="370172556" to="304655091#2"/>
    <trip id="veh197" type="veh_passenger" depart="990.89" departLane="best" departSpeed="max" from="825242665" to="305162873#1"/>
    <trip id="veh198" type="veh_passenger" depart="995.92" departLane="best" departSpeed="max" from="825242665" to="305162873#1"/>
    <trip id="veh199" type="veh_passenger" depart="1000.95" departLane="best" departSpeed="max" from="825242665" to="305162873#1"/>
    <trip id="veh200" type="veh_passenger" depart="1005.98" departLane="best" departSpeed="max" from="370172556" to="304655091#2"/>
    <trip id="veh201" type="veh_passenger" depart="1011.01" departLane="best" departSpeed="max" from="825242665" to="305162873#1"/>
    <trip id="veh202" type="veh_passenger" depart="1016.04" departLane="best" departSpeed="max" from="825242665" to="305162873#1"/>
    <trip id="veh203" type="veh_passenger" depart="1021.07" departLane="best" departSpeed="max" from="825242665" to="305162873#1"/>
    <trip id="veh204" type="veh_passenger" depart="1026.10" departLane="best" departSpeed="max" from="825242665" to="305162873#1"/>
    <trip id="veh205" type="veh_passenger" depart="1031.13" departLane="best" departSpeed="max" from="370172556" to="304655091#2"/>
    <trip id="veh206" type="veh_passenger" depart="1036.16" departLane="best" departSpeed="max" from="825242665" to="305162873#1"/>
    <trip id="veh207" type="veh_passenger" depart="1041.19" departLane="best" departSpeed="max" from="370172556" to="304655091#2"/>
    <trip id="veh208" type="veh_passenger" depart="1046.22" departLane="best" departSpeed="max" from="825242665" to="305162873#1"/>
    <trip id="veh209" type="veh_passenger" depart="1051.25" departLane="best" departSpeed="max" from="370172556" to="304655091#2"/>
    <trip id="veh210" type="veh_passenger" depart="1056.28" departLane="best" departSpeed="max" from="825242665" to="305162873#1"/>
    <trip id="veh211" type="veh_passenger" depart="1061.31" departLane="best" departSpeed="max" from="825242665" to="305162873#1"/>
    <trip id="veh212" type="veh_passenger" depart="1066.34" departLane="best" departSpeed="max" from="825242665" to="305162873#1"/>