<?xml version="1.0" encoding="UTF-8"?>

<!-- generated on 2024-05-13 14:38:07.487885 by osmWebWizard.py v1_19_0+0000-baa66a0f364
<configuration>
    <net-file value="C:\Users\gusta\2024-05-13-14-37-47\osm.net.xml.gz"/>
    <output-trip-file value="C:\Users\gusta\2024-05-13-14-37-47\osm.truck.trips.xml"/>
    <route-file value="C:\Users\gusta\2024-05-13-14-37-47\osm.truck.rou.xml"/>
    <prefix value="truck"/>
    <trip-attributes value="departLane=&quot;best&quot;"/>
    <fringe-start-attributes value="departSpeed=&quot;max&quot;"/>
    <vehicle-class value="truck"/>
    <fringe-factor value="5"/>
    <vclass value="truck"/>
    <via-edge-types value="highway.motorway,highway.motorway_link,highway.trunk_link,highway.primary_link,highway.secondary_link,highway.tertiary_link"/>
    <min-distance value="600.0"/>
    <min-distance.fringe value="10.0"/>
    <remove-loops value="True"/>
    <validate value="True"/>
    <end value="60000.0"/>
    <insertion-density value="8.0"/>
</configuration>
-->

<!-- generated on 2024-05-13 14:38:06 by Eclipse SUMO duarouter Version 1.19.0
<configuration xmlns:xsi="http://www.w3.org/2001/XMLSchema-instance" xsi:noNamespaceSchemaLocation="http://sumo.dlr.de/xsd/duarouterConfiguration.xsd">

    <input>
        <net-file value="C:\Users\gusta\2024-05-13-14-37-47\osm.net.xml.gz"/>
        <route-files value="C:\Users\gusta\2024-05-13-14-37-47\osm.truck.trips.xml"/>
    </input>

    <output>
        <output-file value="C:\Users\gusta\2024-05-13-14-37-47\osm.truck.trips.xml.tmp"/>
        <alternatives-output value="NUL"/>
        <write-trips value="true"/>
    </output>

    <processing>
        <remove-loops value="true"/>
    </processing>

    <time>
        <begin value="0.0"/>
        <end value="60000.0"/>
    </time>

    <report>
        <no-warnings value="true"/>
        <ignore-errors value="true"/>
        <no-step-log value="true"/>
    </report>

</configuration>
-->

<routes xmlns:xsi="http://www.w3.org/2001/XMLSchema-instance" xsi:noNamespaceSchemaLocation="http://sumo.dlr.de/xsd/routes_file.xsd">
    <vType id="truck_truck" vClass="truck"/>
    <trip id="truck0" type="truck_truck" depart="0.00" departLane="best" departSpeed="max" from="370172556" to="304655091#2"/>
    <trip id="truck1" type="truck_truck" depart="7.54" departLane="best" departSpeed="max" from="825242665" to="305162873#1"/>
    <trip id="truck2" type="truck_truck" depart="15.09" departLane="best" departSpeed="max" from="370172556" to="304655091#2"/>
    <trip id="truck3" type="truck_truck" depart="22.63" departLane="best" departSpeed="max" from="370172556" to="304655091#2"/>
    <trip id="truck4" type="truck_truck" depart="30.18" departLane="best" departSpeed="max" from="825242665" to="305162873#1"/>
    <trip id="truck5" type="truck_truck" depart="37.72" departLane="best" departSpeed="max" from="825242665" to="305162873#1"/>
    <trip id="truck6" type="truck_truck" depart="45.27" departLane="best" departSpeed="max" from="370172556" to="304655091#2"/>
    <trip id="truck7" type="truck_truck" depart="52.81" departLane="best" departSpeed="max" from="370172556" to="304655091#2"/>
    <trip id="truck8" type="truck_truck" depart="60.36" departLane="best" departSpeed="max" from="825242665" to="305162873#1"/>
    <trip id="truck9" type="truck_truck" depart="67.90" departLane="best" departSpeed="max" from="825242665" to="305162873#1"/>
    <trip id="truck10" type="truck_truck" depart="75.45" departLane="best" departSpeed="max" from="825242665" to="305162873#1"/>
    <trip id="truck11" type="truck_truck" depart="82.99" departLane="best" departSpeed="max" from="825242665" to="305162873#1"/>
    <trip id="truck12" type="truck_truck" depart="90.54" departLane="best" departSpeed="max" from="825242665" to="305162873#1"/>
    <trip id="truck13" type="truck_truck" depart="98.08" departLane="best" departSpeed="max" from="370172556" to="304655091#2"/>
    <trip id="truck14" type="truck_truck" depart="105.63" departLane="best" departSpeed="max" from="370172556" to="304655091#2"/>
    <trip id="truck15" type="truck_truck" depart="113.17" departLane="best" departSpeed="max" from="370172556" to="304655091#2"/>
    <trip id="truck16" type="truck_truck" depart="120.72" departLane="best" departSpeed="max" from="370172556" to="304655091#2"/>
    <trip id="truck17" type="truck_truck" depart="128.26" departLane="best" departSpeed="max" from="825242665" to="305162873#1"/>
    <trip id="truck18" type="truck_truck" depart="135.81" departLane="best" departSpeed="max" from="370172556" to="304655091#2"/>
    <trip id="truck19" type="truck_truck" depart="143.35" departLane="best" departSpeed="max" from="825242665" to="305162873#1"/>
    <trip id="truck20" type="truck_truck" depart="150.90" departLane="best" departSpeed="max" from="825242665" to="305162873#1"/>
    <trip id="truck21" type="truck_truck" depart="158.44" departLane="best" departSpeed="max" from="825242665" to="305162873#1"/>
    <trip id="truck22" type="truck_truck" depart="165.99" departLane="best" departSpeed="max" from="370172556" to="304655091#2"/>
    <trip id="truck23" type="truck_truck" depart="173.53" departLane="best" departSpeed="max" from="370172556" to="304655091#2"/>
    <trip id="truck24" type="truck_truck" depart="181.08" departLane="best" departSpeed="max" from="370172556" to="304655091#2"/>
    <trip id="truck25" type="truck_truck" depart="188.62" departLane="best" departSpeed="max" from="825242665" to="305162873#1"/>
    <trip id="truck26" type="truck_truck" depart="196.17" departLane="best" departSpeed="max" from="370172556" to="304655091#2"/>
    <trip id="truck27" type="truck_truck" depart="203.71" departLane="best" departSpeed="max" from="825242665" to="305162873#1"/>
    <trip id="truck28" type="truck_truck" depart="211.26" departLane="best" departSpeed="max" from="370172556" to="304655091#2"/>
    <trip id="truck29" type="truck_truck" depart="218.80" departLane="best" departSpeed="max" from="370172556" to="304655091#2"/>
    <trip id="truck30" type="truck_truck" depart="226.35" departLane="best" departSpeed="max" from="825242665" to="305162873#1"/>
    <trip id="truck31" type="truck_truck" depart="233.89" departLane="best" departSpeed="max" from="825242665" to="305162873#1"/>
    <trip id="truck32" type="truck_truck" depart="241.44" departLane="best" departSpeed="max" from="825242665" to="305162873#1"/>
    <trip id="truck33" type="truck_truck" depart="248.98" departLane="best" departSpeed="max" from="370172556" to="304655091#2"/>
    <trip id="truck34" type="truck_truck" depart="256.53" departLane="best" departSpeed="max" from="825242665" to="305162873#1"/>
    <trip id="truck35" type="truck_truck" depart="264.07" departLane="best" departSpeed="max" from="825242665" to="305162873#1"/>
    <trip id="truck36" type="truck_truck" depart="271.62" departLane="best" departSpeed="max" from="825242665" to="305162873#1"/>
    <trip id="truck37" type="truck_truck" depart="279.16" departLane="best" departSpeed="max" from="370172556" to="304655091#2"/>
    <trip id="truck38" type="truck_truck" depart="286.70" departLane="best" departSpeed="max" from="825242665" to="305162873#1"/>
    <trip id="truck39" type="truck_truck" depart="294.25" departLane="best" departSpeed="max" from="370172556" to="304655091#2"/>
    <trip id="truck40" type="truck_truck" depart="301.79" departLane="best" departSpeed="max" from="825242665" to="305162873#1"/>
    <trip id="truck41" type="truck_truck" depart="309.34" departLane="best" departSpeed="max" from="370172556" to="304655091#2"/>
    <trip id="truck42" type="truck_truck" depart="316.88" departLane="best" departSpeed="max" from="370172556" to="304655091#2"/>
    <trip id="truck43" type="truck_truck" depart="324.43" departLane="best" departSpeed="max" from="825242665" to="305162873#1"/>
    <trip id="truck44" type="truck_truck" depart="331.97" departLane="best" departSpeed="max" from="370172556" to="304655091#2"/>
    <trip id="truck45" type="truck_truck" depart="339.52" departLane="best" departSpeed="max" from="825242665" to="305162873#1"/>
    <trip id="truck46" type="truck_truck" depart="347.06" departLane="best" departSpeed="max" from="370172556" to="304655091#2"/>
    <trip id="truck47" type="truck_truck" depart="354.61" departLane="best" departSpeed="max" from="370172556" to="304655091#2"/>
    <trip id="truck48" type="truck_truck" depart="362.15" departLane="best" departSpeed="max" from="370172556" to="304655091#2"/>
    <trip id="truck49" type="truck_truck" depart="369.70" departLane="best" departSpeed="max" from="825242665" to="305162873#1"/>
    <trip id="truck50" type="truck_truck" depart="377.24" departLane="best" departSpeed="max" from="370172556" to="304655091#2"/>
    <trip id="truck51" type="truck_truck" depart="384.79" departLane="best" departSpeed="max" from="370172556" to="304655091#2"/>
    <trip id="truck52" type="truck_truck" depart="392.33" departLane="best" departSpeed="max" from="825242665" to="305162873#1"/>
    <trip id="truck53" type="truck_truck" depart="399.88" departLane="best" departSpeed="max" from="370172556" to="304655091#2"/>
    <trip id="truck54" type="truck_truck" depart="407.42" departLane="best" departSpeed="max" from="370172556" to="304655091#2"/>
    <trip id="truck55" type="truck_truck" depart="414.97" departLane="best" departSpeed="max" from="370172556" to="304655091#2"/>
    <trip id="truck56" type="truck_truck" depart="422.51" departLane="best" departSpeed="max" from="825242665" to="305162873#1"/>
    <trip id="truck57" type="truck_truck" depart="430.06" departLane="best" departSpeed="max" from="825242665" to="305162873#1"/>
    <trip id="truck58" type="truck_truck" depart="437.60" departLane="best" departSpeed="max" from="370172556" to="304655091#2"/>
    <trip id="truck59" type="truck_truck" depart="445.15" departLane="best" departSpeed="max" from="370172556" to="304655091#2"/>
    <trip id="truck60" type="truck_truck" depart="452.69" departLane="best" departSpeed="max" from="370172556" to="304655091#2"/>
    <trip id="truck61" type="truck_truck" depart="460.24" departLane="best" departSpeed="max" from="825242665" to="305162873#1"/>
    <trip id="truck62" type="truck_truck" depart="467.78" departLane="best" departSpeed="max" from="825242665" to="305162873#1"/>
    <trip id="truck63" type="truck_truck" depart="475.33" departLane="best" departSpeed="max" from="370172556" to="304655091#2"/>
    <trip id="truck64" type="truck_truck" depart="482.87" departLane="best" departSpeed="max" from="825242665" to="305162873#1"/>
    <trip id="truck65" type="truck_truck" depart="490.42" departLane="best" departSpeed="max" from="825242665" to="305162873#1"/>
    <trip id="truck66" type="truck_truck" depart="497.96" departLane="best" departSpeed="max" from="825242665" to="305162873#1"/>
    <trip id="truck67" type="truck_truck" depart="505.51" departLane="best" departSpeed="max" from="370172556" to="304655091#2"/>
    <trip id="truck68" type="truck_truck" depart="513.05" departLane="best" departSpeed="max" from="825242665" to="305162873#1"/>
    <trip id="truck69" type="truck_truck" depart="520.60" departLane="best" departSpeed="max" from="370172556" to="304655091#2"/>
    <trip id="truck70" type="truck_truck" depart="528.14" departLane="best" departSpeed="max" from="825242665" to="305162873#1"/>
    <trip id="truck71" type="truck_truck" depart="535.69" departLane="best" departSpeed="max" from="825242665" to="305162873#1"/>
    <trip id="truck72" type="truck_truck" depart="543.23" departLane="best" departSpeed="max" from="370172556" to="304655091#2"/>
    <trip id="truck73" type="truck_truck" depart="550.78" departLane="best" departSpeed="max" from="370172556" to="304655091#2"/>
    <trip id="truck74" type="truck_truck" depart="558.32" departLane="best" departSpeed="max" from="825242665" to="305162873#1"/>
    <trip id="truck75" type="truck_truck" depart="565.87" departLane="best" departSpeed="max" from="370172556" to="304655091#2"/>
    <trip id="truck76" type="truck_truck" depart="573.41" departLane="best" departSpeed="max" from="825242665" to="305162873#1"/>
    <trip id="truck77" type="truck_truck" depart="580.95" departLane="best" departSpeed="max" from="370172556" to="304655091#2"/>
    <trip id="truck78" type="truck_truck" depart="588.50" departLane="best" departSpeed="max" from="825242665" to="305162873#1"/>
    <trip id="truck79" type="truck_truck" depart="596.04" departLane="best" departSpeed="max" from="825242665" to="305162873#1"/>
    <trip id="truck80" type="truck_truck" depart="603.59" departLane="best" departSpeed="max" from="825242665" to="305162873#1"/>
    <trip id="truck81" type="truck_truck" depart="611.13" departLane="best" departSpeed="max" from="370172556" to="304655091#2"/>
    <trip id="truck82" type="truck_truck" depart="618.68" departLane="best" departSpeed="max" from="370172556" to="304655091#2"/>
    <trip id="truck83" type="truck_truck" depart="626.22" departLane="best" departSpeed="max" from="825242665" to="305162873#1"/>
    <trip id="truck84" type="truck_truck" depart="633.77" departLane="best" departSpeed="max" from="370172556" to="304655091#2"/>
    <trip id="truck85" type="truck_truck" depart="641.31" departLane="best" departSpeed="max" from="825242665" to="305162873#1"/>
    <trip id="truck86" type="truck_truck" depart="648.86" departLane="best" departSpeed="max" from="825242665" to="305162873#1"/>
    <trip id="truck87" type="truck_truck" depart="656.40" departLane="best" departSpeed="max" from="370172556" to="304655091#2"/>
    <trip id="truck88" type="truck_truck" depart="663.95" departLane="best" departSpeed="max" from="825242665" to="305162873#1"/>
    <trip id="truck89" type="truck_truck" depart="671.49" departLane="best" departSpeed="max" from="370172556" to="304655091#2"/>
    <trip id="truck90" type="truck_truck" depart="679.04" departLane="best" departSpeed="max" from="825242665" to="305162873#1"/>
    <trip id="truck91" type="truck_truck" depart="686.58" departLane="best" departSpeed="max" from="825242665" to="305162873#1"/>
    <trip id="truck92" type="truck_truck" depart="694.13" departLane="best" departSpeed="max" from="825242665" to="305162873#1"/>
    <trip id="truck93" type="truck_truck" depart="701.67" departLane="best" departSpeed="max" from="825242665" to="305162873#1"/>
    <trip id="truck94" type="truck_truck" depart="709.22" departLane="best" departSpeed="max" from="825242665" to="305162873#1"/>
    <trip id="truck95" type="truck_truck" depart="716.76" departLane="best" departSpeed="max" from="370172556" to="304655091#2"/>
    <trip id="truck96" type="truck_truck" depart="724.31" departLane="best" departSpeed="max" from="370172556" to="304655091#2"/>
    <trip id="truck97" type="truck_truck" depart="731.85" departLane="best" departSpeed="max" from="825242665" to="305162873#1"/>
    <trip id="truck98" type="truck_truck" depart="739.40" departLane="best" departSpeed="max" from="370172556" to="304655091#2"/>
    <trip id="truck99" type="truck_truck" depart="746.94" departLane="best" departSpeed="max" from="825242665" to="305162873#1"/>
    <trip id="truck100" type="truck_truck" depart="754.49" departLane="best" departSpeed="max" from="825242665" to="305162873#1"/>
    <trip id="truck101" type="truck_truck" depart="762.03" departLane="best" departSpeed="max" from="825242665" to="305162873#1"/>
    <trip id="truck102" type="truck_truck" depart="769.58" departLane="best" departSpeed="max" from="370172556" to="304655091#2"/>
    <trip id="truck103" type="truck_truck" depart="777.12" departLane="best" departSpeed="max" from="370172556" to="304655091#2"/>
    <trip id="truck104" type="truck_truck" depart="784.67" departLane="best" departSpeed="max" from="370172556" to="304655091#2"/>
    <trip id="truck105" type="truck_truck" depart="792.21" departLane="best" departSpeed="max" from="370172556" to="304655091#2"/>
    <trip id="truck106" type="truck_truck" depart="799.76" departLane="best" departSpeed="max" from="825242665" to="305162873#1"/>
    <trip id="truck107" type="truck_truck" depart="807.30" departLane="best" departSpeed="max" from="825242665" to="305162873#1"/>
    <trip id="truck108" type="truck_truck" depart="814.85" departLane="best" departSpeed="max" from="370172556" to="304655091#2"/>
    <trip id="truck109" type="truck_truck" depart="822.39" departLane="best" departSpeed="max" from="370172556" to="304655091#2"/>
    <trip id="truck110" type="truck_truck" depart="829.94" departLane="best" departSpeed="max" from="825242665" to="305162873#1"/>
    <trip id="truck111" type="truck_truck" depart="837.48" departLane="best" departSpeed="max" from="370172556" to="304655091#2"/>
    <trip id="truck112" type="truck_truck" depart="845.03" departLane="best" departSpeed="max" from="370172556" to="304655091#2"/>
    <trip id="truck113" type="truck_truck" depart="852.57" departLane="best" departSpeed="max" from="370172556" to="304655091#2"/>
    <trip id="truck114" type="truck_truck" depart="860.11" departLane="best" departSpeed="max" from="825242665" to="305162873#1"/>
    <trip id="truck115" type="truck_truck" depart="867.66" departLane="best" departSpeed="max" from="370172556" to="304655091#2"/>
    <trip id="truck116" type="truck_truck" depart="875.20" departLane="best" departSpeed="max" from="825242665" to="305162873#1"/>
    <trip id="truck117" type="truck_truck" depart="882.75" departLane="best" departSpeed="max" from="825242665" to="305162873#1"/>
    <trip id="truck118" type="truck_truck" depart="890.29" departLane="best" departSpeed="max" from="825242665" to="305162873#1"/>
    <trip id="truck119" type="truck_truck" depart="897.84" departLane="best" departSpeed="max" from="825242665" to="305162873#1"/>
    <trip id="truck120" type="truck_truck" depart="905.38" departLane="best" departSpeed="max" from="825242665" to="305162873#1"/>
    <trip id="truck121" type="truck_truck" depart="912.93" departLane="best" departSpeed="max" from="825242665" to="305162873#1"/>
    <trip id="truck122" type="truck_truck" depart="920.47" departLane="best" departSpeed="max" from="370172556" to="304655091#2"/>
    <trip id="truck123" type="truck_truck" depart="928.02" departLane="best" departSpeed="max" from="825242665" to="305162873#1"/>
    <trip id="truck124" type="truck_truck" depart="935.56" departLane="best" departSpeed="max" from="370172556" to="304655091#2"/>
    <trip id="truck125" type="truck_truck" depart="943.11" departLane="best" departSpeed="max" from="370172556" to="304655091#2"/>
    <trip id="truck126" type="truck_truck" depart="950.65" departLane="best" departSpeed="max" from="370172556" to="304655091#2"/>
    <trip id="truck127" type="truck_truck" depart="958.20" departLane="best" departSpeed="max" from="825242665" to="305162873#1"/>
    <trip id="truck128" type="truck_truck" depart="965.74" departLane="best" departSpeed="max" from="825242665" to="305162873#1"/>
    <trip id="truck129" type="truck_truck" depart="973.29" departLane="best" departSpeed="max" from="370172556" to="304655091#2"/>
    <trip id="truck130" type="truck_truck" depart="980.83" departLane="best" departSpeed="max" from="825242665" to="305162873#1"/>
    <trip id="truck131" type="truck_truck" depart="988.38" departLane="best" departSpeed="max" from="825242665" to="305162873#1"/>
    <trip id="truck132" type="truck_truck" depart="995.92" departLane="best" departSpeed="max" from="370172556" to="304655091#2"/>
    <trip id="truck133" type="truck_truck" depart="1003.47" departLane="best" departSpeed="max" from="370172556" to="304655091#2"/>
    <trip id="truck134" type="truck_truck" depart="1011.01" departLane="best" departSpeed="max" from="370172556" to="304655091#2"/>
    <trip id="truck135" type="truck_truck" depart="1018.56" departLane="best" departSpeed="max" from="370172556" to="304655091#2"/>
    <trip id="truck136" type="truck_truck" depart="1026.10" departLane="best" departSpeed="max" from="370172556" to="304655091#2"/>
    <trip id="truck137" type="truck_truck" depart="1033.65" departLane="best" departSpeed="max" from="370172556" to="304655091#2"/>
    <trip id="truck138" type="truck_truck" depart="1041.19" departLane="best" departSpeed="max" from="370172556" to="304655091#2"/>
    <trip id="truck139" type="truck_truck" depart="1048.74" departLane="best" departSpeed="max" from="825242665" to="305162873#1"/>
    <trip id="truck140" type="truck_truck" depart="1056.28" departLane="best" departSpeed="max" from="370172556" to="304655091#2"/>
    <trip id="truck141" type="truck_truck" depart="1063.83" departLane="best" departSpeed="max" from="825242665" to="305162873#1"/>
    <trip id="truck142" type="truck_truck" depart="1071.37" departLane="best" departSpeed="max" from="825242665" to="305162873#1"/>
    <trip id="truck143" type="truck_truck" depart="1078.92" departLane="best" departSpeed="max" from="370172556" to="304655091#2"/>
    <trip id="truck144" type="truck_truck" depart="1086.46" departLane="best" departSpeed="max" from="825242665" to="305162873#1"/>
    <trip id="truck145" type="truck_truck" depart="1094.01" departLane="best" departSpeed="max" from="825242665" to="305162873#1"/>
    <trip id="truck146" type="truck_truck" depart="1101.55" departLane="best" departSpeed="max" from="370172556" to="304655091#2"/>
    <trip id="truck147" type="truck_truck" depart="1109.10" departLane="best" departSpeed="max" from="825242665" to="305162873#1"/>
    <trip id="truck148" type="truck_truck" depart="1116.64" departLane="best" departSpeed="max" from="825242665" to="305162873#1"/>
    <trip id="truck149" type="truck_truck" depart="1124.19" departLane="best" departSpeed="max" from="370172556" to="304655091#2"/>
    <trip id="truck150" type="truck_truck" depart="1131.73" departLane="best" departSpeed="max" from="825242665" to="305162873#1"/>
    <trip id="truck151" type="truck_truck" depart="1139.27" departLane="best" departSpeed="max" from="825242665" to="305162873#1"/>
    <trip id="truck152" type="truck_truck" depart="1146.82" departLane="best" departSpeed="max" from="825242665" to="305162873#1"/>
    <trip id="truck153" type="truck_truck" depart="1154.36" departLane="best" departSpeed="max" from="370172556" to="304655091#2"/>
    <trip id="truck154" type="truck_truck" depart="1161.91" departLane="best" departSpeed="max" from="825242665" to="305162873#1"/>
    <trip id="truck155" type="truck_truck" depart="1169.45" departLane="best" departSpeed="max" from="370172556" to="304655091#2"/>
    <trip id="truck156" type="truck_truck" depart="1177.00" departLane="best" departSpeed="max" from="370172556" to="304655091#2"/>
    <trip id="truck157" type="truck_truck" depart="1184.54" departLane="best" departSpeed="max" from="370172556" to="304655091#2"/>
    <trip id="truck158" type="truck_truck" depart="1192.09" departLane="best" departSpeed="max" from="825242665" to="305162873#1"/>
    <trip id="truck159" type="truck_truck" depart="1199.63" departLane="best" departSpeed="max" from="370172556" to="304655091#2"/>
    <trip id="truck160" type="truck_truck" depart="1207.18" departLane="best" departSpeed="max" from="825242665" to="305162873#1"/>
    <trip id="truck161" type="truck_truck" depart="1214.72" departLane="best" departSpeed="max" from="370172556" to="304655091#2"/>
    <trip id="truck162" type="truck_truck" depart="1222.27" departLane="best" departSpeed="max" from="370172556" to="304655091#2"/>
    <trip id="truck163" type="truck_truck" depart="1229.81" departLane="best" departSpeed="max" from="370172556" to="304655091#2"/>
    <trip id="truck164" type="truck_truck" depart="1237.36" departLane="best" departSpeed="max" from="825242665" to="305162873#1"/>
    <trip id="truck165" type="truck_truck" depart="1244.90" departLane="best" departSpeed="max" from="825242665" to="305162873#1"/>
    <trip id="truck166" type="truck_truck" depart="1252.45" departLane="best" departSpeed="max" from="370172556" to="304655091#2"/>
    <trip id="truck167" type="truck_truck" depart="1259.99" departLane="best" departSpeed="max" from="370172556" to="304655091#2"/>
    <trip id="truck168" type="truck_truck" depart="1267.54" departLane="best" departSpeed="max" from="370172556" to="304655091#2"/>
    <trip id="truck169" type="truck_truck" depart="1275.08" departLane="best" departSpeed="max" from="825242665" to="305162873#1"/>
    <trip id="truck170" type="truck_truck" depart="1282.63" departLane="best" departSpeed="max" from="825242665" to="305162873#1"/>
    <trip id="truck171" type="truck_truck" depart="1290.17" departLane="best" departSpeed="max" from="825242665" to="305162873#1"/>
    <trip id="truck172" type="truck_truck" depart="1297.72" departLane="best" departSpeed="max" from="370172556" to="304655091#2"/>
    <trip id="truck173" type="truck_truck" depart="1305.26" departLane="best" departSpeed="max" from="370172556" to="304655091#2"/>
    <trip id="truck174" type="truck_truck" depart="1312.81" departLane="best" departSpeed="max" from="370172556" to="304655091#2"/>
    <trip id="truck175" type="truck_truck" depart="1320.35" departLane="best" departSpeed="max" from="825242665" to="305162873#1"/>
    <trip id="truck176" type="truck_truck" depart="1327.90" departLane="best" departSpeed="max" from="825242665" to="305162873#1"/>
    <trip id="truck177" type="truck_truck" depart="1335.44" departLane="best" departSpeed="max" from="825242665" to="305162873#1"/>
    <trip id="truck178" type="truck_truck" depart="1342.99" departLane="best" departSpeed="max" from="825242665" to="305162873#1"/>
    <trip id="truck179" type="truck_truck" depart="1350.53" departLane="best" departSpeed="max" from="370172556" to="304655091#2"/>
    <trip id="truck180" type="truck_truck" depart="1358.08" departLane="best" departSpeed="max" from="825242665" to="305162873#1"/>
    <trip id="truck181" type="truck_truck" depart="1365.62" departLane="best" departSpeed="max" from="370172556" to="304655091#2"/>
    <trip id="truck182" type="truck_truck" depart="1373.17" departLane="best" departSpeed="max" from="825242665" to="305162873#1"/>
    <trip id="truck183" type="truck_truck" depart="1380.71" departLane="best" departSpeed="max" from="825242665" to="305162873#1"/>
    <trip id="truck184" type="truck_truck" depart="1388.26" departLane="best" departSpeed="max" from="370172556" to="304655091#2"/>
    <trip id="truck185" type="truck_truck" depart="1395.80" departLane="best" departSpeed="max" from="370172556" to="304655091#2"/>
    <trip id="truck186" type="truck_truck" depart="1403.35" departLane="best" departSpeed="max" from="370172556" to="304655091#2"/>
    <trip id="truck187" type="truck_truck" depart="1410.89" departLane="best" departSpeed="max" from="825242665" to="305162873#1"/>
    <trip id="truck188" type="truck_truck" depart="1418.43" departLane="best" departSpeed="max" from="825242665" to="305162873#1"/>
    <trip id="truck189" type="truck_truck" depart="1425.98" departLane="best" departSpeed="max" from="825242665" to="305162873#1"/>
    <trip id="truck190" type="truck_truck" depart="1433.52" departLane="best" departSpeed="max" from="370172556" to="304655091#2"/>
    <trip id="truck191" type="truck_truck" depart="1441.07" departLane="best" departSpeed="max" from="370172556" to="304655091#2"/>
    <trip id="truck192" type="truck_truck" depart="1448.61" departLane="best" departSpeed="max" from="825242665" to="305162873#1"/>
    <trip id="truck193" type="truck_truck" depart="1456.16" departLane="best" departSpeed="max" from="825242665" to="305162873#1"/>
    <trip id="truck194" type="truck_truck" depart="1463.70" departLane="best" departSpeed="max" from="370172556" to="304655091#2"/>
    <trip id="truck195" type="truck_truck" depart="1471.25" departLane="best" departSpeed="max" from="825242665" to="305162873#1"/>
    <trip id="truck196" type="truck_truck" depart="1478.79" departLane="best" departSpeed="max" from="370172556" to="304655091#2"/>
    <trip id="truck197" type="truck_truck" depart="1486.34" departLane="best" departSpeed="max" from="825242665" to="305162873#1"/>
    <trip id="truck198" type="truck_truck" depart="1493.88" departLane="best" departSpeed="max" from="825242665" to="305162873#1"/>
    <trip id="truck199" type="truck_truck" depart="1501.43" departLane="best" departSpeed="max" from="825242665" to="305162873#1"/>
    <trip id="truck200" type="truck_truck" depart="1508.97" departLane="best" departSpeed="max" from="370172556" to="304655091#2"/>
    <trip id="truck201" type="truck_truck" depart="1516.52" departLane="best" departSpeed="max" from="825242665" to="305162873#1"/>
    <trip id="truck202" type="truck_truck" depart="1524.06" departLane="best" departSpeed="max" from="825242665" to="305162873#1"/>
    <trip id="truck203" type="truck_truck" depart="1531.61" departLane="best" departSpeed="max" from="825242665" to="305162873#1"/>
    <trip id="truck204" type="truck_truck" depart="1539.15" departLane="best" departSpeed="max" from="825242665" to="305162873#1"/>
    <trip id="truck205" type="truck_truck" depart="1546.70" departLane="best" departSpeed="max" from="370172556" to="304655091#2"/>
    <trip id="truck206" type="truck_truck" depart="1554.24" departLane="best" departSpeed="max" from="825242665" to="305162873#1"/>
    <trip id="truck207" type="truck_truck" depart="1561.79" departLane="best" departSpeed="max" from="370172556" to="304655091#2"/>
    <trip id="truck208" type="truck_truck" depart="1569.33" departLane="best" departSpeed="max" from="825242665" to="305162873#1"/>
    <trip id="truck209" type="truck_truck" depart="1576.88" departLane="best" departSpeed="max" from="370172556" to="304655091#2"/>
    <trip id="truck210" type="truck_truck" depart="1584.42" departLane="best" departSpeed="max" from="825242665" to="305162873#1"/>
    <trip id="truck211" type="truck_truck" depart="1591.97" departLane="best" departSpeed="max" from="825242665" to="305162873#1"/>
    <trip id="truck212" type="truck_truck" depart="1599.51" departLane="best" departSpeed="max" from="825242665" to="305162873#1"/>