<?xml version="1.0" encoding="UTF-8"?>

<!-- generated on 2024-05-13 14:38:00.384429 by osmWebWizard.py v1_19_0+0000-baa66a0f364
<configuration>
    <net-file value="C:\Users\gusta\2024-05-13-14-37-47\osm.net.xml.gz"/>
    <output-trip-file value="C:\Users\gusta\2024-05-13-14-37-47\osm.motorcycle.trips.xml"/>
    <route-file value="C:\Users\gusta\2024-05-13-14-37-47\osm.motorcycle.rou.xml"/>
    <prefix value="motorcycle"/>
    <trip-attributes value="departLane=&quot;best&quot;"/>
    <fringe-start-attributes value="departSpeed=&quot;max&quot;"/>
    <vehicle-class value="motorcycle"/>
    <fringe-factor value="2"/>
    <vclass value="motorcycle"/>
    <via-edge-types value="highway.motorway,highway.motorway_link,highway.trunk_link,highway.primary_link,highway.secondary_link,highway.tertiary_link"/>
    <max-distance value="1200.0"/>
    <remove-loops value="True"/>
    <validate value="True"/>
    <end value="60000.0"/>
    <insertion-density value="4.0"/>
</configuration>
-->

<!-- generated on 2024-05-13 14:37:59 by Eclipse SUMO duarouter Version 1.19.0
<configuration xmlns:xsi="http://www.w3.org/2001/XMLSchema-instance" xsi:noNamespaceSchemaLocation="http://sumo.dlr.de/xsd/duarouterConfiguration.xsd">

    <input>
        <net-file value="C:\Users\gusta\2024-05-13-14-37-47\osm.net.xml.gz"/>
        <route-files value="C:\Users\gusta\2024-05-13-14-37-47\osm.motorcycle.trips.xml"/>
    </input>

    <output>
        <output-file value="C:\Users\gusta\2024-05-13-14-37-47\osm.motorcycle.trips.xml.tmp"/>
        <alternatives-output value="NUL"/>
        <write-trips value="true"/>
    </output>

    <processing>
        <remove-loops value="true"/>
    </processing>

    <time>
        <begin value="0.0"/>
        <end value="60000.0"/>
    </time>

    <report>
        <no-warnings value="true"/>
        <ignore-errors value="true"/>
        <no-step-log value="true"/>
    </report>

</configuration>
-->

<routes xmlns:xsi="http://www.w3.org/2001/XMLSchema-instance" xsi:noNamespaceSchemaLocation="http://sumo.dlr.de/xsd/routes_file.xsd">
    <vType id="motorcycle_motorcycle" vClass="motorcycle"/>
    <trip id="motorcycle0" type="motorcycle_motorcycle" depart="0.00" departLane="best" departSpeed="max" from="825242665" to="304655091#2"/>
    <trip id="motorcycle1" type="motorcycle_motorcycle" depart="15.09" departLane="best" departSpeed="max" from="825242665" to="304655091#2"/>
    <trip id="motorcycle2" type="motorcycle_motorcycle" depart="30.18" departLane="best" departSpeed="max" from="370172556" to="305162873#1"/>
    <trip id="motorcycle3" type="motorcycle_motorcycle" depart="45.27" departLane="best" departSpeed="max" from="370172556" to="305162873#1"/>
    <trip id="motorcycle4" type="motorcycle_motorcycle" depart="60.36" departLane="best" departSpeed="max" from="825242665" to="304655091#2"/>
    <trip id="motorcycle5" type="motorcycle_motorcycle" depart="75.45" departLane="best" departSpeed="max" from="825242665" to="304655091#2"/>
    <trip id="motorcycle6" type="motorcycle_motorcycle" depart="90.54" departLane="best" departSpeed="max" from="370172556" to="305162873#1"/>
    <trip id="motorcycle7" type="motorcycle_motorcycle" depart="105.63" departLane="best" departSpeed="max" from="825242665" to="304655091#2"/>
    <trip id="motorcycle8" type="motorcycle_motorcycle" depart="120.72" departLane="best" departSpeed="max" from="825242665" to="304655091#2"/>
    <trip id="motorcycle9" type="motorcycle_motorcycle" depart="135.81" departLane="best" departSpeed="max" from="370172556" to="305162873#1"/>
    <trip id="motorcycle10" type="motorcycle_motorcycle" depart="150.90" departLane="best" departSpeed="max" from="370172556" to="305162873#1"/>
    <trip id="motorcycle11" type="motorcycle_motorcycle" depart="165.99" departLane="best" departSpeed="max" from="370172556" to="305162873#1"/>
    <trip id="motorcycle12" type="motorcycle_motorcycle" depart="181.08" departLane="best" departSpeed="max" from="825242665" to="304655091#2"/>
    <trip id="motorcycle13" type="motorcycle_motorcycle" depart="196.17" departLane="best" departSpeed="max" from="825242665" to="304655091#2"/>
    <trip id="motorcycle14" type="motorcycle_motorcycle" depart="211.26" departLane="best" departSpeed="max" from="825242665" to="304655091#2"/>
    <trip id="motorcycle15" type="motorcycle_motorcycle" depart="226.35" departLane="best" departSpeed="max" from="825242665" to="304655091#2"/>
    <trip id="motorcycle16" type="motorcycle_motorcycle" depart="241.44" departLane="best" departSpeed="max" from="370172556" to="305162873#1"/>
    <trip id="motorcycle17" type="motorcycle_motorcycle" depart="256.53" departLane="best" departSpeed="max" from="825242665" to="304655091#2"/>
    <trip id="motorcycle18" type="motorcycle_motorcycle" depart="271.62" departLane="best" departSpeed="max" from="370172556" to="305162873#1"/>
    <trip id="motorcycle19" type="motorcycle_motorcycle" depart="286.70" departLane="best" departSpeed="max" from="370172556" to="305162873#1"/>
    <trip id="motorcycle20" type="motorcycle_motorcycle" depart="301.79" departLane="best" departSpeed="max" from="370172556" to="305162873#1"/>
    <trip id="motorcycle21" type="motorcycle_motorcycle" depart="316.88" departLane="best" departSpeed="max" from="825242665" to="304655091#2"/>
    <trip id="motorcycle22" type="motorcycle_motorcycle" depart="331.97" departLane="best" departSpeed="max" from="825242665" to="304655091#2"/>
    <trip id="motorcycle23" type="motorcycle_motorcycle" depart="347.06" departLane="best" departSpeed="max" from="370172556" to="305162873#1"/>
    <trip id="motorcycle24" type="motorcycle_motorcycle" depart="362.15" departLane="best" departSpeed="max" from="825242665" to="304655091#2"/>
    <trip id="motorcycle25" type="motorcycle_motorcycle" depart="377.24" departLane="best" departSpeed="max" from="370172556" to="305162873#1"/>
    <trip id="motorcycle26" type="motorcycle_motorcycle" depart="392.33" departLane="best" departSpeed="max" from="370172556" to="305162873#1"/>
    <trip id="motorcycle27" type="motorcycle_motorcycle" depart="407.42" departLane="best" departSpeed="max" from="825242665" to="304655091#2"/>
    <trip id="motorcycle28" type="motorcycle_motorcycle" depart="422.51" departLane="best" departSpeed="max" from="370172556" to="305162873#1"/>
    <trip id="motorcycle29" type="motorcycle_motorcycle" depart="437.60" departLane="best" departSpeed="max" from="370172556" to="305162873#1"/>
    <trip id="motorcycle30" type="motorcycle_motorcycle" depart="452.69" departLane="best" departSpeed="max" from="370172556" to="305162873#1"/>
    <trip id="motorcycle31" type="motorcycle_motorcycle" depart="467.78" departLane="best" departSpeed="max" from="370172556" to="305162873#1"/>
    <trip id="motorcycle32" type="motorcycle_motorcycle" depart="482.87" departLane="best" departSpeed="max" from="370172556" to="305162873#1"/>
    <trip id="motorcycle33" type="motorcycle_motorcycle" depart="497.96" departLane="best" departSpeed="max" from="370172556" to="305162873#1"/>
    <trip id="motorcycle34" type="motorcycle_motorcycle" depart="513.05" departLane="best" departSpeed="max" from="825242665" to="304655091#2"/>
    <trip id="motorcycle35" type="motorcycle_motorcycle" depart="528.14" departLane="best" departSpeed="max" from="370172556" to="305162873#1"/>
    <trip id="motorcycle36" type="motorcycle_motorcycle" depart="543.23" departLane="best" departSpeed="max" from="370172556" to="305162873#1"/>
    <trip id="motorcycle37" type="motorcycle_motorcycle" depart="558.32" departLane="best" departSpeed="max" from="825242665" to="304655091#2"/>
    <trip id="motorcycle38" type="motorcycle_motorcycle" depart="573.41" departLane="best" departSpeed="max" from="825242665" to="304655091#2"/>
    <trip id="motorcycle39" type="motorcycle_motorcycle" depart="588.50" departLane="best" departSpeed="max" from="825242665" to="304655091#2"/>
    <trip id="motorcycle40" type="motorcycle_motorcycle" depart="603.59" departLane="best" departSpeed="max" from="370172556" to="305162873#1"/>
    <trip id="motorcycle41" type="motorcycle_motorcycle" depart="618.68" departLane="best" departSpeed="max" from="370172556" to="305162873#1"/>
    <trip id="motorcycle42" type="motorcycle_motorcycle" depart="633.77" departLane="best" departSpeed="max" from="825242665" to="304655091#2"/>
    <trip id="motorcycle43" type="motorcycle_motorcycle" depart="648.86" departLane="best" departSpeed="max" from="825242665" to="304655091#2"/>
    <trip id="motorcycle44" type="motorcycle_motorcycle" depart="663.95" departLane="best" departSpeed="max" from="370172556" to="305162873#1"/>
    <trip id="motorcycle45" type="motorcycle_motorcycle" depart="679.04" departLane="best" departSpeed="max" from="370172556" to="305162873#1"/>
    <trip id="motorcycle46" type="motorcycle_motorcycle" depart="694.13" departLane="best" departSpeed="max" from="370172556" to="305162873#1"/>
    <trip id="motorcycle47" type="motorcycle_motorcycle" depart="709.22" departLane="best" departSpeed="max" from="370172556" to="305162873#1"/>
    <trip id="motorcycle48" type="motorcycle_motorcycle" depart="724.31" departLane="best" departSpeed="max" from="825242665" to="304655091#2"/>
    <trip id="motorcycle49" type="motorcycle_motorcycle" depart="739.40" departLane="best" departSpeed="max" from="370172556" to="305162873#1"/>
    <trip id="motorcycle50" type="motorcycle_motorcycle" depart="754.49" departLane="best" departSpeed="max" from="370172556" to="305162873#1"/>
    <trip id="motorcycle51" type="motorcycle_motorcycle" depart="769.58" departLane="best" departSpeed="max" from="825242665" to="304655091#2"/>
    <trip id="motorcycle52" type="motorcycle_motorcycle" depart="784.67" departLane="best" departSpeed="max" from="370172556" to="305162873#1"/>
    <trip id="motorcycle53" type="motorcycle_motorcycle" depart="799.76" departLane="best" departSpeed="max" from="370172556" to="305162873#1"/>
    <trip id="motorcycle54" type="motorcycle_motorcycle" depart="814.85" departLane="best" departSpeed="max" from="825242665" to="304655091#2"/>
    <trip id="motorcycle55" type="motorcycle_motorcycle" depart="829.94" departLane="best" departSpeed="max" from="825242665" to="304655091#2"/>
    <trip id="motorcycle56" type="motorcycle_motorcycle" depart="845.03" departLane="best" departSpeed="max" from="370172556" to="305162873#1"/>
    <trip id="motorcycle57" type="motorcycle_motorcycle" depart="860.11" departLane="best" departSpeed="max" from="370172556" to="305162873#1"/>
    <trip id="motorcycle58" type="motorcycle_motorcycle" depart="875.20" departLane="best" departSpeed="max" from="825242665" to="304655091#2"/>
    <trip id="motorcycle59" type="motorcycle_motorcycle" depart="890.29" departLane="best" departSpeed="max" from="825242665" to="304655091#2"/>
    <trip id="motorcycle60" type="motorcycle_motorcycle" depart="905.38" departLane="best" departSpeed="max" from="370172556" to="305162873#1"/>
    <trip id="motorcycle61" type="motorcycle_motorcycle" depart="920.47" departLane="best" departSpeed="max" from="825242665" to="304655091#2"/>
    <trip id="motorcycle62" type="motorcycle_motorcycle" depart="935.56" departLane="best" departSpeed="max" from="370172556" to="305162873#1"/>
    <trip id="motorcycle63" type="motorcycle_motorcycle" depart="950.65" departLane="best" departSpeed="max" from="825242665" to="304655091#2"/>
    <trip id="motorcycle64" type="motorcycle_motorcycle" depart="965.74" departLane="best" departSpeed="max" from="370172556" to="305162873#1"/>
    <trip id="motorcycle65" type="motorcycle_motorcycle" depart="980.83" departLane="best" departSpeed="max" from="370172556" to="305162873#1"/>
    <trip id="motorcycle66" type="motorcycle_motorcycle" depart="995.92" departLane="best" departSpeed="max" from="825242665" to="304655091#2"/>
    <trip id="motorcycle67" type="motorcycle_motorcycle" depart="1011.01" departLane="best" departSpeed="max" from="370172556" to="305162873#1"/>
    <trip id="motorcycle68" type="motorcycle_motorcycle" depart="1026.10" departLane="best" departSpeed="max" from="370172556" to="305162873#1"/>
    <trip id="motorcycle69" type="motorcycle_motorcycle" depart="1041.19" departLane="best" departSpeed="max" from="370172556" to="305162873#1"/>
    <trip id="motorcycle70" type="motorcycle_motorcycle" depart="1056.28" departLane="best" departSpeed="max" from="370172556" to="305162873#1"/>
    <trip id="motorcycle71" type="motorcycle_motorcycle" depart="1071.37" departLane="best" departSpeed="max" from="825242665" to="304655091#2"/>
    <trip id="motorcycle72" type="motorcycle_motorcycle" depart="1086.46" departLane="best" departSpeed="max" from="825242665" to="304655091#2"/>
    <trip id="motorcycle73" type="motorcycle_motorcycle" depart="1101.55" departLane="best" departSpeed="max" from="370172556" to="305162873#1"/>
    <trip id="motorcycle74" type="motorcycle_motorcycle" depart="1116.64" departLane="best" departSpeed="max" from="825242665" to="304655091#2"/>
    <trip id="motorcycle75" type="motorcycle_motorcycle" depart="1131.73" departLane="best" departSpeed="max" from="370172556" to="305162873#1"/>
    <trip id="motorcycle76" type="motorcycle_motorcycle" depart="1146.82" departLane="best" departSpeed="max" from="825242665" to="304655091#2"/>
    <trip id="motorcycle77" type="motorcycle_motorcycle" depart="1161.91" departLane="best" departSpeed="max" from="825242665" to="304655091#2"/>
    <trip id="motorcycle78" type="motorcycle_motorcycle" depart="1177.00" departLane="best" departSpeed="max" from="825242665" to="304655091#2"/>
    <trip id="motorcycle79" type="motorcycle_motorcycle" depart="1192.09" departLane="best" departSpeed="max" from="825242665" to="304655091#2"/>
    <trip id="motorcycle80" type="motorcycle_motorcycle" depart="1207.18" departLane="best" departSpeed="max" from="825242665" to="304655091#2"/>
    <trip id="motorcycle81" type="motorcycle_motorcycle" depart="1222.27" departLane="best" departSpeed="max" from="825242665" to="304655091#2"/>
    <trip id="motorcycle82" type="motorcycle_motorcycle" depart="1237.36" departLane="best" departSpeed="max" from="370172556" to="305162873#1"/>
    <trip id="motorcycle83" type="motorcycle_motorcycle" depart="1252.45" departLane="best" departSpeed="max" from="370172556" to="305162873#1"/>
    <trip id="motorcycle84" type="motorcycle_motorcycle" depart="1267.54" departLane="best" departSpeed="max" from="370172556" to="305162873#1"/>
    <trip id="motorcycle85" type="motorcycle_motorcycle" depart="1282.63" departLane="best" departSpeed="max" from="825242665" to="304655091#2"/>
    <trip id="motorcycle86" type="motorcycle_motorcycle" depart="1297.72" departLane="best" departSpeed="max" from="370172556" to="305162873#1"/>
    <trip id="motorcycle87" type="motorcycle_motorcycle" depart="1312.81" departLane="best" departSpeed="max" from="825242665" to="304655091#2"/>
    <trip id="motorcycle88" type="motorcycle_motorcycle" depart="1327.90" departLane="best" departSpeed="max" from="370172556" to="305162873#1"/>
    <trip id="motorcycle89" type="motorcycle_motorcycle" depart="1342.99" departLane="best" departSpeed="max" from="370172556" to="305162873#1"/>
    <trip id="motorcycle90" type="motorcycle_motorcycle" depart="1358.08" departLane="best" departSpeed="max" from="825242665" to="304655091#2"/>
    <trip id="motorcycle91" type="motorcycle_motorcycle" depart="1373.17" departLane="best" departSpeed="max" from="370172556" to="305162873#1"/>
    <trip id="motorcycle92" type="motorcycle_motorcycle" depart="1388.26" departLane="best" departSpeed="max" from="825242665" to="304655091#2"/>
    <trip id="motorcycle93" type="motorcycle_motorcycle" depart="1403.35" departLane="best" departSpeed="max" from="370172556" to="305162873#1"/>
    <trip id="motorcycle94" type="motorcycle_motorcycle" depart="1418.43" departLane="best" departSpeed="max" from="825242665" to="304655091#2"/>
    <trip id="motorcycle95" type="motorcycle_motorcycle" depart="1433.52" departLane="best" departSpeed="max" from="825242665" to="304655091#2"/>
    <trip id="motorcycle96" type="motorcycle_motorcycle" depart="1448.61" departLane="best" departSpeed="max" from="825242665" to="304655091#2"/>
    <trip id="motorcycle97" type="motorcycle_motorcycle" depart="1463.70" departLane="best" departSpeed="max" from="370172556" to="305162873#1"/>
    <trip id="motorcycle98" type="motorcycle_motorcycle" depart="1478.79" departLane="best" departSpeed="max" from="370172556" to="305162873#1"/>
    <trip id="motorcycle99" type="motorcycle_motorcycle" depart="1493.88" departLane="best" departSpeed="max" from="825242665" to="304655091#2"/>
    <trip id="motorcycle100" type="motorcycle_motorcycle" depart="1508.97" departLane="best" departSpeed="max" from="370172556" to="305162873#1"/>
    <trip id="motorcycle101" type="motorcycle_motorcycle" depart="1524.06" departLane="best" departSpeed="max" from="825242665" to="304655091#2"/>
    <trip id="motorcycle102" type="motorcycle_motorcycle" depart="1539.15" departLane="best" departSpeed="max" from="370172556" to="305162873#1"/>
    <trip id="motorcycle103" type="motorcycle_motorcycle" depart="1554.24" departLane="best" departSpeed="max" from="370172556" to="305162873#1"/>
    <trip id="motorcycle104" type="motorcycle_motorcycle" depart="1569.33" departLane="best" departSpeed="max" from="370172556" to="305162873#1"/>
    <trip id="motorcycle105" type="motorcycle_motorcycle" depart="1584.42" departLane="best" departSpeed="max" from="825242665" to="304655091#2"/>
    <trip id="motorcycle106" type="motorcycle_motorcycle" depart="1599.51" departLane="best" departSpeed="max" from="825242665" to="304655091#2"/>
    <trip id="motorcycle107" type="motorcycle_motorcycle" depart="1614.60" departLane="best" departSpeed="max" from="370172556" to="305162873#1"/>
    <trip id="motorcycle108" type="motorcycle_motorcycle" depart="1629.69" departLane="best" departSpeed="max" from="825242665" to="304655091#2"/>
    <trip id="motorcycle109" type="motorcycle_motorcycle" depart="1644.78" departLane="best" departSpeed="max" from="370172556" to="305162873#1"/>
    <trip id="motorcycle110" type="motorcycle_motorcycle" depart="1659.87" departLane="best" departSpeed="max" from="370172556" to="305162873#1"/>
    <trip id="motorcycle111" type="motorcycle_motorcycle" depart="1674.96" departLane="best" departSpeed="max" from="370172556" to="305162873#1"/>
    <trip id="motorcycle112" type="motorcycle_motorcycle" depart="1690.05" departLane="best" departSpeed="max" from="370172556" to="305162873#1"/>
    <trip id="motorcycle113" type="motorcycle_motorcycle" depart="1705.14" departLane="best" departSpeed="max" from="370172556" to="305162873#1"/>
    <trip id="motorcycle114" type="motorcycle_motorcycle" depart="1720.23" departLane="best" departSpeed="max" from="825242665" to="304655091#2"/>
    <trip id="motorcycle115" type="motorcycle_motorcycle" depart="1735.32" departLane="best" departSpeed="max" from="370172556" to="305162873#1"/>
    <trip id="motorcycle116" type="motorcycle_motorcycle" depart="1750.41" departLane="best" departSpeed="max" from="370172556" to="305162873#1"/>
    <trip id="motorcycle117" type="motorcycle_motorcycle" depart="1765.50" departLane="best" departSpeed="max" from="825242665" to="304655091#2"/>
    <trip id="motorcycle118" type="motorcycle_motorcycle" depart="1780.59" departLane="best" departSpeed="max" from="370172556" to="305162873#1"/>
    <trip id="motorcycle119" type="motorcycle_motorcycle" depart="1795.68" departLane="best" departSpeed="max" from="825242665" to="304655091#2"/>
    <trip id="motorcycle120" type="motorcycle_motorcycle" depart="1810.77" departLane="best" departSpeed="max" from="825242665" to="304655091#2"/>
    <trip id="motorcycle121" type="motorcycle_motorcycle" depart="1825.86" departLane="best" departSpeed="max" from="370172556" to="305162873#1"/>
    <trip id="motorcycle122" type="motorcycle_motorcycle" depart="1840.95" departLane="best" departSpeed="max" from="825242665" to="304655091#2"/>
    <trip id="motorcycle123" type="motorcycle_motorcycle" depart="1856.04" departLane="best" departSpeed="max" from="370172556" to="305162873#1"/>
    <trip id="motorcycle124" type="motorcycle_motorcycle" depart="1871.13" departLane="best" departSpeed="max" from="825242665" to="304655091#2"/>
    <trip id="motorcycle125" type="motorcycle_motorcycle" depart="1886.22" departLane="best" departSpeed="max" from="370172556" to="305162873#1"/>
    <trip id="motorcycle126" type="motorcycle_motorcycle" depart="1901.31" departLane="best" departSpeed="max" from="825242665" to="304655091#2"/>
    <trip id="motorcycle127" type="motorcycle_motorcycle" depart="1916.40" departLane="best" departSpeed="max" from="825242665" to="304655091#2"/>
    <trip id="motorcycle128" type="motorcycle_motorcycle" depart="1931.49" departLane="best" departSpeed="max" from="370172556" to="305162873#1"/>
    <trip id="motorcycle129" type="motorcycle_motorcycle" depart="1946.58" departLane="best" departSpeed="max" from="370172556" to="305162873#1"/>
    <trip id="motorcycle130" type="motorcycle_motorcycle" depart="1961.67" departLane="best" departSpeed="max" from="825242665" to="304655091#2"/>
    <trip id="motorcycle131" type="motorcycle_motorcycle" depart="1976.76" departLane="best" departSpeed="max" from="825242665" to="304655091#2"/>
    <trip id="motorcycle132" type="motorcycle_motorcycle" depart="1991.84" departLane="best" departSpeed="max" from="370172556" to="305162873#1"/>
    <trip id="motorcycle133" type="motorcycle_motorcycle" depart="2006.93" departLane="best" departSpeed="max" from="825242665" to="304655091#2"/>
    <trip id="motorcycle134" type="motorcycle_motorcycle" depart="2022.02" departLane="best" departSpeed="max" from="370172556" to="305162873#1"/>
    <trip id="motorcycle135" type="motorcycle_motorcycle" depart="2037.11" departLane="best" departSpeed="max" from="825242665" to="304655091#2"/>
    <trip id="motorcycle136" type="motorcycle_motorcycle" depart="2052.20" departLane="best" departSpeed="max" from="370172556" to="305162873#1"/>
    <trip id="motorcycle137" type="motorcycle_motorcycle" depart="2067.29" departLane="best" departSpeed="max" from="370172556" to="305162873#1"/>
    <trip id="motorcycle138" type="motorcycle_motorcycle" depart="2082.38" departLane="best" departSpeed="max" from="825242665" to="304655091#2"/>
    <trip id="motorcycle139" type="motorcycle_motorcycle" depart="2097.47" departLane="best" departSpeed="max" from="825242665" to="304655091#2"/>
    <trip id="motorcycle140" type="motorcycle_motorcycle" depart="2112.56" departLane="best" departSpeed="max" from="370172556" to="305162873#1"/>
    <trip id="motorcycle141" type="motorcycle_motorcycle" depart="2127.65" departLane="best" departSpeed="max" from="825242665" to="304655091#2"/>
    <trip id="motorcycle142" type="motorcycle_motorcycle" depart="2142.74" departLane="best" departSpeed="max" from="370172556" to="305162873#1"/>
    <trip id="motorcycle143" type="motorcycle_motorcycle" depart="2157.83" departLane="best" departSpeed="max" from="370172556" to="305162873#1"/>
    <trip id="motorcycle144" type="motorcycle_motorcycle" depart="2172.92" departLane="best" departSpeed="max" from="825242665" to="304655091#2"/>
    <trip id="motorcycle145" type="motorcycle_motorcycle" depart="2188.01" departLane="best" departSpeed="max" from="370172556" to="305162873#1"/>
    <trip id="motorcycle146" type="motorcycle_motorcycle" depart="2203.10" departLane="best" departSpeed="max" from="370172556" to="305162873#1"/>
    <trip id="motorcycle147" type="motorcycle_motorcycle" depart="2218.19" departLane="best" departSpeed="max" from="370172556" to="305162873#1"/>
    <trip id="motorcycle148" type="motorcycle_motorcycle" depart="2233.28" departLane="best" departSpeed="max" from="370172556" to="305162873#1"/>
    <trip id="motorcycle149" type="motorcycle_motorcycle" depart="2248.37" departLane="best" departSpeed="max" from="825242665" to="304655091#2"/>
    <trip id="motorcycle150" type="motorcycle_motorcycle" depart="2263.46" departLane="best" departSpeed="max" from="825242665" to="304655091#2"/>
    <trip id="motorcycle151" type="motorcycle_motorcycle" depart="2278.55" departLane="best" departSpeed="max" from="825242665" to="304655091#2"/>
    <trip id="motorcycle152" type="motorcycle_motorcycle" depart="2293.64" departLane="best" departSpeed="max" from="825242665" to="304655091#2"/>
    <trip id="motorcycle153" type="motorcycle_motorcycle" depart="2308.73" departLane="best" departSpeed="max" from="825242665" to="304655091#2"/>
    <trip id="motorcycle154" type="motorcycle_motorcycle" depart="2323.82" departLane="best" departSpeed="max" from="370172556" to="305162873#1"/>
    <trip id="motorcycle155" type="motorcycle_motorcycle" depart="2338.91" departLane="best" departSpeed="max" from="825242665" to="304655091#2"/>
    <trip id="motorcycle156" type="motorcycle_motorcycle" depart="2354.00" departLane="best" departSpeed="max" from="825242665" to="304655091#2"/>
    <trip id="motorcycle157" type="motorcycle_motorcycle" depart="2369.09" departLane="best" departSpeed="max" from="825242665" to="304655091#2"/>
    <trip id="motorcycle158" type="motorcycle_motorcycle" depart="2384.18" departLane="best" departSpeed="max" from="825242665" to="304655091#2"/>
    <trip id="motorcycle159" type="motorcycle_motorcycle" depart="2399.27" departLane="best" departSpeed="max" from="825242665" to="304655091#2"/>
    <trip id="motorcycle160" type="motorcycle_motorcycle" depart="2414.36" departLane="best" departSpeed="max" from="370172556" to="305162873#1"/>
    <trip id="motorcycle161" type="motorcycle_motorcycle" depart="2429.45" departLane="best" departSpeed="max" from="825242665" to="304655091#2"/>
    <trip id="motorcycle162" type="motorcycle_motorcycle" depart="2444.54" departLane="best" departSpeed="max" from="825242665" to="304655091#2"/>
    <trip id="motorcycle163" type="motorcycle_motorcycle" depart="2459.63" departLane="best" departSpeed="max" from="825242665" to="304655091#2"/>
    <trip id="motorcycle164" type="motorcycle_motorcycle" depart="2474.72" departLane="best" departSpeed="max" from="825242665" to="304655091#2"/>
    <trip id="motorcycle165" type="motorcycle_motorcycle" depart="2489.81" departLane="best" departSpeed="max" from="370172556" to="305162873#1"/>
    <trip id="motorcycle166" type="motorcycle_motorcycle" depart="2504.90" departLane="best" departSpeed="max" from="825242665" to="304655091#2"/>
    <trip id="motorcycle167" type="motorcycle_motorcycle" depart="2519.99" departLane="best" departSpeed="max" from="825242665" to="304655091#2"/>
    <trip id="motorcycle168" type="motorcycle_motorcycle" depart="2535.08" departLane="best" departSpeed="max" from="825242665" to="304655091#2"/>
    <trip id="motorcycle169" type="motorcycle_motorcycle" depart="2550.16" departLane="best" departSpeed="max" from="370172556" to="305162873#1"/>
    <trip id="motorcycle170" type="motorcycle_motorcycle" depart="2565.25" departLane="best" departSpeed="max" from="825242665" to="304655091#2"/>
    <trip id="motorcycle171" type="motorcycle_motorcycle" depart="2580.34" departLane="best" departSpeed="max" from="370172556" to="305162873#1"/>
    <trip id="motorcycle172" type="motorcycle_motorcycle" depart="2595.43" departLane="best" departSpeed="max" from="825242665" to="304655091#2"/>
    <trip id="motorcycle173" type="motorcycle_motorcycle" depart="2610.52" departLane="best" departSpeed="max" from="370172556" to="305162873#1"/>
    <trip id="motorcycle174" type="motorcycle_motorcycle" depart="2625.61" departLane="best" departSpeed="max" from="825242665" to="304655091#2"/>
    <trip id="motorcycle175" type="motorcycle_motorcycle" depart="2640.70" departLane="best" departSpeed="max" from="370172556" to="305162873#1"/>
    <trip id="motorcycle176" type="motorcycle_motorcycle" depart="2655.79" departLane="best" departSpeed="max" from="370172556" to="305162873#1"/>
    <trip id="motorcycle177" type="motorcycle_motorcycle" depart="2670.88" departLane="best" departSpeed="max" from="825242665" to="304655091#2"/>
    <trip id="motorcycle178" type="motorcycle_motorcycle" depart="2685.97" departLane="best" departSpeed="max" from="370172556" to="305162873#1"/>
    <trip id="motorcycle179" type="motorcycle_motorcycle" depart="2701.06" departLane="best" departSpeed="max" from="370172556" to="305162873#1"/>
    <trip id="motorcycle180" type="motorcycle_motorcycle" depart="2716.15" departLane="best" departSpeed="max" from="370172556" to="305162873#1"/>
    <trip id="motorcycle181" type="motorcycle_motorcycle" depart="2731.24" departLane="best" departSpeed="max" from="370172556" to="305162873#1"/>
    <trip id="motorcycle182" type="motorcycle_motorcycle" depart="2746.33" departLane="best" departSpeed="max" from="825242665" to="304655091#2"/>
    <trip id="motorcycle183" type="motorcycle_motorcycle" depart="2761.42" departLane="best" departSpeed="max" from="825242665" to="304655091#2"/>
    <trip id="motorcycle184" type="motorcycle_motorcycle" depart="2776.51" departLane="best" departSpeed="max" from="370172556" to="305162873#1"/>
    <trip id="motorcycle185" type="motorcycle_motorcycle" depart="2791.60" departLane="best" departSpeed="max" from="370172556" to="305162873#1"/>
    <trip id="motorcycle186" type="motorcycle_motorcycle" depart="2806.69" departLane="best" departSpeed="max" from="825242665" to="304655091#2"/>
    <trip id="motorcycle187" type="motorcycle_motorcycle" depart="2821.78" departLane="best" departSpeed="max" from="370172556" to="305162873#1"/>
    <trip id="motorcycle188" type="motorcycle_motorcycle" depart="2836.87" departLane="best" departSpeed="max" from="825242665" to="304655091#2"/>
    <trip id="motorcycle189" type="motorcycle_motorcycle" depart="2851.96" departLane="best" departSpeed="max" from="825242665" to="304655091#2"/>