<?xml version="1.0" encoding="UTF-8"?>

<!-- generated on 2024-04-23 19:43:43.264806 by osmWebWizard.py v1_19_0+0000-baa66a0f364
<configuration>
    <net-file value="F:\SUMO\OptimalEmission-SUMO-ReinforcementLearning\2024-04-23-19-43-03\osm.net.xml.gz"/>
    <output-trip-file value="F:\SUMO\OptimalEmission-SUMO-ReinforcementLearning\2024-04-23-19-43-03\osm.bus.trips.xml"/>
    <route-file value="F:\SUMO\OptimalEmission-SUMO-ReinforcementLearning\2024-04-23-19-43-03\osm.bus.rou.xml"/>
    <prefix value="bus"/>
    <trip-attributes value="departLane=&quot;best&quot;"/>
    <fringe-start-attributes value="departSpeed=&quot;max&quot;"/>
    <vehicle-class value="bus"/>
    <fringe-factor value="5"/>
    <vclass value="bus"/>
    <via-edge-types value="highway.motorway,highway.motorway_link,highway.trunk_link,highway.primary_link,highway.secondary_link,highway.tertiary_link"/>
    <min-distance value="600.0"/>
    <min-distance.fringe value="10.0"/>
    <remove-loops value="True"/>
    <validate value="True"/>
    <insertion-density value="4.0"/>
</configuration>
-->

<!-- generated on 2024-04-23 19:43:41 by Eclipse SUMO duarouter Version 1.19.0
<configuration xmlns:xsi="http://www.w3.org/2001/XMLSchema-instance" xsi:noNamespaceSchemaLocation="http://sumo.dlr.de/xsd/duarouterConfiguration.xsd">

    <input>
        <net-file value="F:\SUMO\OptimalEmission-SUMO-ReinforcementLearning\2024-04-23-19-43-03\osm.net.xml.gz"/>
        <route-files value="F:\SUMO\OptimalEmission-SUMO-ReinforcementLearning\2024-04-23-19-43-03\osm.bus.trips.xml"/>
    </input>

    <output>
        <output-file value="F:\SUMO\OptimalEmission-SUMO-ReinforcementLearning\2024-04-23-19-43-03\osm.bus.trips.xml.tmp"/>
        <alternatives-output value="NUL"/>
        <write-trips value="true"/>
    </output>

    <processing>
        <remove-loops value="true"/>
    </processing>

    <time>
        <begin value="0.0"/>
        <end value="3600.0"/>
    </time>

    <report>
        <no-warnings value="true"/>
        <ignore-errors value="true"/>
        <no-step-log value="true"/>
    </report>

</configuration>
-->

<routes xmlns:xsi="http://www.w3.org/2001/XMLSchema-instance" xsi:noNamespaceSchemaLocation="http://sumo.dlr.de/xsd/routes_file.xsd">
    <vType id="bus_bus" vClass="bus"/>
    <trip id="bus0" type="bus_bus" depart="0.00" departLane="best" from="-262072008#0" to="-1205847093"/>
    <trip id="bus1" type="bus_bus" depart="2.30" departLane="best" departSpeed="max" from="-826619491#1" to="555519242"/>
    <trip id="bus2" type="bus_bus" depart="4.60" departLane="best" from="328176135" to="298774227#1"/>
    <trip id="bus3" type="bus_bus" depart="6.90" departLane="best" from="63682666#3" to="-226765465#1"/>
    <trip id="bus4" type="bus_bus" depart="9.20" departLane="best" from="-38811595#4" to="23897495"/>
    <trip id="bus5" type="bus_bus" depart="11.50" departLane="best" from="1197831675#0" to="262231177#1"/>
    <trip id="bus6" type="bus_bus" depart="13.80" departLane="best" from="26469304#5" to="24314355#1"/>
    <trip id="bus7" type="bus_bus" depart="16.10" departLane="best" from="-405263890#6" to="25432699"/>
    <trip id="bus8" type="bus_bus" depart="18.40" departLane="best" from="448951684#1" to="-1132477871#0"/>
    <trip id="bus9" type="bus_bus" depart="20.70" departLane="best" from="440080278#6" to="311380258"/>
    <trip id="bus10" type="bus_bus" depart="23.00" departLane="best" from="116703652#1" to="-312661939"/>
    <trip id="bus11" type="bus_bus" depart="25.30" departLane="best" from="904952230#0" to="-933937310#0"/>
    <trip id="bus12" type="bus_bus" depart="27.60" departLane="best" from="226765465#1" to="-24052207#2"/>
    <trip id="bus13" type="bus_bus" depart="29.90" departLane="best" from="549685953#3" to="25696810#2"/>
    <trip id="bus14" type="bus_bus" depart="32.20" departLane="best" departSpeed="max" from="4473078" to="327430645#1"/>
    <trip id="bus15" type="bus_bus" depart="34.50" departLane="best" from="23989694#2" to="9616886#0"/>
    <trip id="bus16" type="bus_bus" depart="36.80" departLane="best" from="1265887686#1" to="24675140#0"/>
    <trip id="bus17" type="bus_bus" depart="39.10" departLane="best" from="514490262#1" to="259048744"/>
    <trip id="bus18" type="bus_bus" depart="41.40" departLane="best" from="-553642637#0" to="-165691580#0"/>
    <trip id="bus19" type="bus_bus" depart="43.70" departLane="best" from="312567850#0" to="131450095#1"/>
    <trip id="bus20" type="bus_bus" depart="46.00" departLane="best" from="-440080278#4" to="11406696#4"/>
    <trip id="bus21" type="bus_bus" depart="48.30" departLane="best" from="-202014800#2" to="63682666#3"/>
    <trip id="bus22" type="bus_bus" depart="50.60" departLane="best" departSpeed="max" from="-23897559#1" to="1123274837#1"/>
    <trip id="bus23" type="bus_bus" depart="52.90" departLane="best" departSpeed="max" from="259814574#0" to="128169308#0"/>
    <trip id="bus24" type="bus_bus" depart="55.20" departLane="best" from="124717785#0" to="-523077726"/>
    <trip id="bus25" type="bus_bus" depart="57.50" departLane="best" from="663312327" to="835330906#2"/>
    <trip id="bus26" type="bus_bus" depart="59.80" departLane="best" from="263642300#0" to="25698844#0"/>
    <trip id="bus27" type="bus_bus" depart="62.10" departLane="best" from="296896079" to="327430640"/>
    <trip id="bus28" type="bus_bus" depart="64.40" departLane="best" from="270200287#4" to="128169641#5"/>
    <trip id="bus29" type="bus_bus" depart="66.69" departLane="best" from="9811365" to="26734651#1"/>
    <trip id="bus30" type="bus_bus" depart="68.99" departLane="best" from="-24277921#2" to="303447142"/>
    <trip id="bus31" type="bus_bus" depart="71.29" departLane="best" from="542922267#0" to="374789116#0"/>
    <trip id="bus32" type="bus_bus" depart="73.59" departLane="best" from="448951684#0" to="-1263871625#0"/>
    <trip id="bus33" type="bus_bus" depart="75.89" departLane="best" from="11405987#1" to="1055417666#4"/>
    <trip id="bus34" type="bus_bus" depart="78.19" departLane="best" from="-367967151#1" to="84565137#0"/>
    <trip id="bus35" type="bus_bus" depart="80.49" departLane="best" from="315045839" to="1185464222#1"/>
    <trip id="bus36" type="bus_bus" depart="82.79" departLane="best" from="-26972151#5" to="148348626#0"/>
    <trip id="bus37" type="bus_bus" depart="85.09" departLane="best" from="75387556#0" to="21893601#0"/>
    <trip id="bus38" type="bus_bus" depart="87.39" departLane="best" from="-591080993" to="-852311791"/>
    <trip id="bus39" type="bus_bus" depart="89.69" departLane="best" from="-24314202#0" to="10224527#2"/>
    <trip id="bus40" type="bus_bus" depart="91.99" departLane="best" from="128169579#2" to="-553653976#1"/>
    <trip id="bus41" type="bus_bus" depart="94.29" departLane="best" from="981527816#0" to="23989423"/>
    <trip id="bus42" type="bus_bus" depart="96.59" departLane="best" from="226763077#0" to="136790107"/>
    <trip id="bus43" type="bus_bus" depart="98.89" departLane="best" departSpeed="max" from="-24037542#2" to="262231189#1"/>
    <trip id="bus44" type="bus_bus" depart="101.19" departLane="best" from="405263890#0" to="-24052445"/>
    <trip id="bus45" type="bus_bus" depart="103.49" departLane="best" from="159809191#3" to="128169691"/>
    <trip id="bus46" type="bus_bus" depart="105.79" departLane="best" from="9813525#0" to="24203344#10"/>
    <trip id="bus47" type="bus_bus" depart="108.09" departLane="best" from="9615927#0" to="553394984#0"/>
    <trip id="bus48" type="bus_bus" depart="110.39" departLane="best" from="-11406499#0" to="-236476506#1"/>
    <trip id="bus49" type="bus_bus" depart="112.69" departLane="best" from="298774224#1" to="24269099#0"/>
    <trip id="bus50" type="bus_bus" depart="114.99" departLane="best" from="-662903606" to="269078757#0"/>
    <trip id="bus51" type="bus_bus" depart="117.29" departLane="best" from="24052207#2" to="188278096#1"/>
    <trip id="bus52" type="bus_bus" depart="119.59" departLane="best" departSpeed="max" from="184079881#0" to="892576022#2"/>
    <trip id="bus53" type="bus_bus" depart="121.89" departLane="best" from="568547102#0" to="761798782#1"/>
    <trip id="bus54" type="bus_bus" depart="124.19" departLane="best" from="226736450" to="363070249#5"/>
    <trip id="bus55" type="bus_bus" depart="126.49" departLane="best" from="750632120" to="555526190"/>
    <trip id="bus56" type="bus_bus" depart="128.79" departLane="best" from="1164668782" to="265879659#1"/>
    <trip id="bus57" type="bus_bus" depart="131.09" departLane="best" from="-25442735#0" to="-31019933"/>
    <trip id="bus58" type="bus_bus" depart="133.39" departLane="best" from="-363312386#1" to="24269313#0"/>
    <trip id="bus59" type="bus_bus" depart="135.69" departLane="best" from="378102672#0" to="24203344#6"/>
    <trip id="bus60" type="bus_bus" depart="137.99" departLane="best" departSpeed="max" from="-1013694274#1" to="1209031746"/>
    <trip id="bus61" type="bus_bus" depart="140.29" departLane="best" from="1165420141" to="813689947#1"/>
    <trip id="bus62" type="bus_bus" depart="142.59" departLane="best" departSpeed="max" from="57403746" to="514490262#1"/>
    <trip id="bus63" type="bus_bus" depart="144.89" departLane="best" from="-1122867035#0" to="165691575#1"/>
    <trip id="bus64" type="bus_bus" depart="147.19" departLane="best" departSpeed="max" from="57403090#0" to="856284788"/>
    <trip id="bus65" type="bus_bus" depart="149.49" departLane="best" from="-21894908#0" to="234250237"/>
    <trip id="bus66" type="bus_bus" depart="151.79" departLane="best" from="-169842663#4" to="36568413"/>
    <trip id="bus67" type="bus_bus" depart="154.09" departLane="best" from="366124401#0" to="-25699878#1"/>
    <trip id="bus68" type="bus_bus" depart="156.39" departLane="best" departSpeed="max" from="199249369" to="-245403951"/>
    <trip id="bus69" type="bus_bus" depart="158.69" departLane="best" from="-608738960#0" to="555576749"/>
    <trip id="bus70" type="bus_bus" depart="160.99" departLane="best" from="152833098#5" to="54209877#2"/>
    <trip id="bus71" type="bus_bus" depart="163.29" departLane="best" from="24000138#0" to="327433725#0"/>
    <trip id="bus72" type="bus_bus" depart="165.59" departLane="best" from="-350890639" to="-116703652#0"/>
    <trip id="bus73" type="bus_bus" depart="167.89" departLane="best" from="9813357#1" to="277829991#2"/>
    <trip id="bus74" type="bus_bus" depart="170.19" departLane="best" from="-165691571" to="24006044#1"/>
    <trip id="bus75" type="bus_bus" depart="172.49" departLane="best" departSpeed="max" from="-24345264#1" to="-555526197"/>
    <trip id="bus76" type="bus_bus" depart="174.79" departLane="best" from="-116697533#0" to="25427857#1"/>
    <trip id="bus77" type="bus_bus" depart="177.09" departLane="best" from="-464432627#1" to="553653981#1"/>
    <trip id="bus78" type="bus_bus" depart="179.39" departLane="best" from="-176039473#1" to="262231225#0"/>
    <trip id="bus79" type="bus_bus" depart="181.69" departLane="best" from="448951684#0" to="706777771#0"/>
    <trip id="bus80" type="bus_bus" depart="183.99" departLane="best" from="553394984#2" to="-195071786#0"/>
    <trip id="bus81" type="bus_bus" depart="186.29" departLane="best" from="-501209223#3" to="296896078"/>
    <trip id="bus82" type="bus_bus" depart="188.59" departLane="best" departSpeed="max" from="-37390247" to="-259814574#0"/>
    <trip id="bus83" type="bus_bus" depart="190.89" departLane="best" from="835330906#2" to="25094881"/>
    <trip id="bus84" type="bus_bus" depart="193.19" departLane="best" departSpeed="max" from="195071786#0" to="38169390#5"/>
    <trip id="bus85" type="bus_bus" depart="195.49" departLane="best" departSpeed="max" from="4473078" to="-405263890#5"/>
    <trip id="bus87" type="bus_bus" depart="200.08" departLane="best" from="152833099#2" to="21896445#2"/>
    <trip id="bus88" type="bus_bus" depart="202.38" departLane="best" from="9798492#1" to="-24210220#1"/>
    <trip id="bus89" type="bus_bus" depart="204.68" departLane="best" from="128169613#0" to="1242333299#0"/>
    <trip id="bus90" type="bus_bus" depart="206.98" departLane="best" from="-553642637#0" to="904952230#1"/>
    <trip id="bus91" type="bus_bus" depart="209.28" departLane="best" from="32427005#1" to="202014800#2"/>
    <trip id="bus92" type="bus_bus" depart="211.58" departLane="best" from="-553369829" to="801626280#0"/>
    <trip id="bus93" type="bus_bus" depart="213.88" departLane="best" from="170123794#1" to="553398825#0"/>
    <trip id="bus94" type="bus_bus" depart="216.18" departLane="best" from="-24210220#1" to="152837280"/>
    <trip id="bus96" type="bus_bus" depart="220.78" departLane="best" from="9615223" to="813153219"/>
    <trip id="bus97" type="bus_bus" depart="223.08" departLane="best" from="55055033#0" to="-332226794#1"/>
    <trip id="bus98" type="bus_bus" depart="225.38" departLane="best" from="21888935#1" to="548583827#0"/>
    <trip id="bus99" type="bus_bus" depart="227.68" departLane="best" from="-128169604#1" to="-165691581#0"/>
    <trip id="bus100" type="bus_bus" depart="229.98" departLane="best" from="1265918765" to="9798952#2"/>
    <trip id="bus101" type="bus_bus" depart="232.28" departLane="best" from="-608738960#1" to="38169390#2"/>
    <trip id="bus102" type="bus_bus" depart="234.58" departLane="best" from="184228328#3" to="173301970"/>
    <trip id="bus103" type="bus_bus" depart="236.88" departLane="best" from="904952230#1" to="9813505#0"/>
    <trip id="bus104" type="bus_bus" depart="239.18" departLane="best" from="-259056233" to="323998779#3"/>
    <trip id="bus105" type="bus_bus" depart="241.48" departLane="best" from="-262551662#0" to="1157513708"/>
    <trip id="bus106" type="bus_bus" depart="243.78" departLane="best" from="9615193#0" to="25275243#0"/>
    <trip id="bus107" type="bus_bus" depart="246.08" departLane="best" from="24036229" to="-350890639"/>
    <trip id="bus108" type="bus_bus" depart="248.38" departLane="best" from="226764670" to="55055054#0"/>
    <trip id="bus109" type="bus_bus" depart="250.68" departLane="best" from="-26515802#2" to="916372926"/>
    <trip id="bus110" type="bus_bus" depart="252.98" departLane="best" from="25265174" to="298468994#1"/>
    <trip id="bus111" type="bus_bus" depart="255.28" departLane="best" from="-487518035#0" to="25442734#1"/>
    <trip id="bus112" type="bus_bus" depart="257.58" departLane="best" departSpeed="max" from="63682615" to="-852311791"/>
    <trip id="bus113" type="bus_bus" depart="259.88" departLane="best" from="-25265170" to="259204129"/>
    <trip id="bus114" type="bus_bus" depart="262.18" departLane="best" from="142172390#5" to="25313884#3"/>
    <trip id="bus115" type="bus_bus" depart="264.48" departLane="best" departSpeed="max" from="23786182" to="821633273"/>
    <trip id="bus116" type="bus_bus" depart="266.78" departLane="best" from="-360569246#0" to="322937691#2"/>
    <trip id="bus117" type="bus_bus" depart="269.08" departLane="best" from="-51029750" to="148348626#0"/>
    <trip id="bus119" type="bus_bus" depart="273.68" departLane="best" from="11406070#3" to="36001956"/>
    <trip id="bus120" type="bus_bus" depart="275.98" departLane="best" from="-184405664#0" to="21893273#2"/>
    <trip id="bus121" type="bus_bus" depart="278.28" departLane="best" from="989434778#0" to="-9813525#0"/>
    <trip id="bus122" type="bus_bus" depart="280.58" departLane="best" from="-186566502#1" to="-548517967#0"/>
    <trip id="bus123" type="bus_bus" depart="282.88" departLane="best" from="-608738960#1" to="816162388"/>
    <trip id="bus124" type="bus_bus" depart="285.18" departLane="best" from="-574782498#1" to="-572309213"/>
    <trip id="bus125" type="bus_bus" depart="287.48" departLane="best" from="-1106516804" to="-315050844"/>
    <trip id="bus126" type="bus_bus" depart="289.78" departLane="best" from="518329919#1" to="314335689#0"/>
    <trip id="bus127" type="bus_bus" depart="292.08" departLane="best" from="25442748#2" to="9810875#0"/>
    <trip id="bus128" type="bus_bus" depart="294.38" departLane="best" from="269078757#1" to="-1132477879#1"/>
    <trip id="bus130" type="bus_bus" depart="298.98" departLane="best" from="282830445#4" to="838285578#0"/>
    <trip id="bus131" type="bus_bus" depart="301.28" departLane="best" departSpeed="max" from="-25427802" to="-25419251"/>
    <trip id="bus132" type="bus_bus" depart="303.58" departLane="best" from="-24006044#0" to="24675159#5"/>
    <trip id="bus133" type="bus_bus" depart="305.88" departLane="best" departSpeed="max" from="-815635147" to="25696815#0"/>
    <trip id="bus134" type="bus_bus" depart="308.18" departLane="best" from="321699323#3" to="-497197237"/>
    <trip id="bus135" type="bus_bus" depart="310.48" departLane="best" from="258532506#2" to="1036540163#1"/>
    <trip id="bus136" type="bus_bus" depart="312.78" departLane="best" from="21893921#0" to="706777771#0"/>
    <trip id="bus137" type="bus_bus" depart="315.08" departLane="best" departSpeed="max" from="548552842" to="236135931"/>
    <trip id="bus138" type="bus_bus" depart="317.38" departLane="best" from="152833099#2" to="1112710474"/>
    <trip id="bus139" type="bus_bus" depart="319.68" departLane="best" departSpeed="max" from="-1079478063#1" to="371909283#1"/>
    <trip id="bus140" type="bus_bus" depart="321.98" departLane="best" from="260321636#4" to="10223920"/>
    <trip id="bus141" type="bus_bus" depart="324.28" departLane="best" from="332239301" to="24674881#2"/>
    <trip id="bus142" type="bus_bus" depart="326.58" departLane="best" from="-156974362" to="11406499#1"/>
    <trip id="bus143" type="bus_bus" depart="328.88" departLane="best" from="188255439#1" to="57701749"/>
    <trip id="bus144" type="bus_bus" depart="331.18" departLane="best" from="706503393" to="24314355#1"/>
    <trip id="bus145" type="bus_bus" depart="333.47" departLane="best" from="-525190380#1" to="25279173#3"/>
    <trip id="bus146" type="bus_bus" depart="335.77" departLane="best" from="-25699884#0" to="25698853#2"/>
    <trip id="bus147" type="bus_bus" depart="338.07" departLane="best" from="1128250890" to="660180535#0"/>
    <trip id="bus148" type="bus_bus" depart="340.37" departLane="best" from="409992194#3" to="553394984#0"/>
    <trip id="bus149" type="bus_bus" depart="342.67" departLane="best" from="672660652" to="-530522423"/>
    <trip id="bus150" type="bus_bus" depart="344.97" departLane="best" from="553642637#1" to="245172280#0"/>
    <trip id="bus151" type="bus_bus" depart="347.27" departLane="best" from="379541125#0" to="57716764#3"/>
    <trip id="bus152" type="bus_bus" depart="349.57" departLane="best" from="128169648#0" to="260321636#3"/>
    <trip id="bus153" type="bus_bus" depart="351.87" departLane="best" from="-262231234#1" to="814195338#0"/>
    <trip id="bus154" type="bus_bus" depart="354.17" departLane="best" from="-553653981#1" to="963339159#1"/>
    <trip id="bus155" type="bus_bus" depart="356.47" departLane="best" from="458338063" to="57686522"/>
    <trip id="bus156" type="bus_bus" depart="358.77" departLane="best" departSpeed="max" from="-116703651#3" to="332226794#0"/>
    <trip id="bus157" type="bus_bus" depart="361.07" departLane="best" from="1164668786#1" to="814195343#0"/>
    <trip id="bus158" type="bus_bus" depart="363.37" departLane="best" from="458338063" to="1055417659"/>
    <trip id="bus159" type="bus_bus" depart="365.67" departLane="best" from="385715075#0" to="-25047274#0"/>
    <trip id="bus160" type="bus_bus" depart="367.97" departLane="best" from="555576781" to="553377532#1"/>
    <trip id="bus161" type="bus_bus" depart="370.27" departLane="best" from="-409992194#2" to="466393859"/>
    <trip id="bus162" type="bus_bus" depart="372.57" departLane="best" departSpeed="max" from="188278093#0" to="1166228836#0"/>
    <trip id="bus163" type="bus_bus" depart="374.87" departLane="best" from="-40925186#3" to="-572309213"/>
    <trip id="bus164" type="bus_bus" depart="377.17" departLane="best" departSpeed="max" from="1160035280#0" to="-553653974"/>
    <trip id="bus165" type="bus_bus" depart="379.47" departLane="best" from="9613904#1" to="-1132477871#0"/>
    <trip id="bus166" type="bus_bus" depart="381.77" departLane="best" from="262231176" to="152833099#2"/>
    <trip id="bus168" type="bus_bus" depart="386.37" departLane="best" from="841434551#2" to="-25419251"/>
    <trip id="bus169" type="bus_bus" depart="388.67" departLane="best" from="9615586#2" to="363070249#5"/>
    <trip id="bus170" type="bus_bus" depart="390.97" departLane="best" from="933937310#1" to="10370247#0"/>
    <trip id="bus171" type="bus_bus" depart="393.27" departLane="best" departSpeed="max" from="-24035721" to="188278096#0"/>
    <trip id="bus172" type="bus_bus" depart="395.57" departLane="best" departSpeed="max" from="324495973#0" to="555526197"/>
    <trip id="bus174" type="bus_bus" depart="400.17" departLane="best" from="78414960" to="25220879#0"/>
    <trip id="bus175" type="bus_bus" depart="402.47" departLane="best" from="554969177#2" to="317017766#0"/>
    <trip id="bus176" type="bus_bus" depart="404.77" departLane="best" from="10223920" to="810560309"/>
    <trip id="bus177" type="bus_bus" depart="407.07" departLane="best" from="23997085" to="323998783"/>
    <trip id="bus178" type="bus_bus" depart="409.37" departLane="best" from="333440225#1" to="296910354"/>
    <trip id="bus179" type="bus_bus" depart="411.67" departLane="best" from="1230890670" to="-195071786#0"/>
    <trip id="bus180" type="bus_bus" depart="413.97" departLane="best" from="-288104513#1" to="1217322683#1"/>
    <trip id="bus181" type="bus_bus" depart="416.27" departLane="best" from="1137322916" to="548430811#0"/>
    <trip id="bus182" type="bus_bus" depart="418.57" departLane="best" from="322937682#0" to="1163457773"/>
    <trip id="bus183" type="bus_bus" depart="420.87" departLane="best" from="-553388953" to="-159809191#3"/>
    <trip id="bus185" type="bus_bus" depart="425.47" departLane="best" departSpeed="max" from="-25094881" to="17045208#1"/>
    <trip id="bus186" type="bus_bus" depart="427.77" departLane="best" from="-844640771" to="299657503#0"/>
    <trip id="bus187" type="bus_bus" depart="430.07" departLane="best" departSpeed="max" from="697837244#0" to="25699880#2"/>
    <trip id="bus188" type="bus_bus" depart="432.37" departLane="best" from="1072363311#2" to="24345264#1"/>
    <trip id="bus189" type="bus_bus" depart="434.67" departLane="best" departSpeed="max" from="-1013694274#1" to="11406499#3"/>
    <trip id="bus190" type="bus_bus" depart="436.97" departLane="best" departSpeed="max" from="158188033" to="25275519#1"/>
    <trip id="bus191" type="bus_bus" depart="439.27" departLane="best" from="269078757#5" to="-21895721#3"/>
    <trip id="bus192" type="bus_bus" depart="441.57" departLane="best" from="-169842663#0" to="548583827#0"/>
    <trip id="bus193" type="bus_bus" depart="443.87" departLane="best" from="195263388" to="680461919"/>
    <trip id="bus194" type="bus_bus" depart="446.17" departLane="best" from="409992194#3" to="-335581289#0"/>
    <trip id="bus195" type="bus_bus" depart="448.47" departLane="best" from="-21894828#0" to="23997236"/>
    <trip id="bus196" type="bus_bus" depart="450.77" departLane="best" from="-25699884#2" to="1230123862"/>
    <trip id="bus197" type="bus_bus" depart="453.07" departLane="best" from="-483001049#2" to="358982244#1"/>
    <trip id="bus198" type="bus_bus" depart="455.37" departLane="best" from="294002089#1" to="-555526197"/>
    <trip id="bus199" type="bus_bus" depart="457.67" departLane="best" from="333529588#4" to="-1205847086"/>
    <trip id="bus200" type="bus_bus" depart="459.97" departLane="best" from="-54209877#0" to="226764671#0"/>
    <trip id="bus201" type="bus_bus" depart="462.27" departLane="best" from="55055033#6" to="202014800#0"/>
    <trip id="bus202" type="bus_bus" depart="464.57" departLane="best" from="129726574#6" to="262231191#4"/>
    <trip id="bus203" type="bus_bus" depart="466.86" departLane="best" from="1133079646" to="311154109#2"/>
    <trip id="bus204" type="bus_bus" depart="469.16" departLane="best" from="21895936#0" to="-84565136#0"/>
    <trip id="bus205" type="bus_bus" depart="471.46" departLane="best" from="26972214#1" to="-1122867035#0"/>
    <trip id="bus206" type="bus_bus" depart="473.76" departLane="best" from="341528499#1" to="37126217"/>
    <trip id="bus207" type="bus_bus" depart="476.06" departLane="best" from="-24000001" to="179940536#0"/>
    <trip id="bus208" type="bus_bus" depart="478.36" departLane="best" from="303943816#0" to="908087829#1"/>
    <trip id="bus209" type="bus_bus" depart="480.66" departLane="best" from="23605368" to="-152833107#0"/>
    <trip id="bus210" type="bus_bus" depart="482.96" departLane="best" from="553360185" to="511327232#0"/>
    <trip id="bus211" type="bus_bus" depart="485.26" departLane="best" from="-184405664#1" to="420094406"/>
    <trip id="bus212" type="bus_bus" depart="487.56" departLane="best" from="292200838#4" to="9811056#1"/>
    <trip id="bus213" type="bus_bus" depart="489.86" departLane="best" from="25275243#0" to="86822276"/>
    <trip id="bus214" type="bus_bus" depart="492.16" departLane="best" from="63682621#0" to="25698853#1"/>
    <trip id="bus215" type="bus_bus" depart="494.46" departLane="best" from="322822557#9" to="23897398#2"/>
    <trip id="bus216" type="bus_bus" depart="496.76" departLane="best" from="516818990" to="24345264#1"/>
    <trip id="bus217" type="bus_bus" depart="499.06" departLane="best" from="-656740223" to="335740588#0"/>
    <trip id="bus219" type="bus_bus" depart="503.66" departLane="best" from="-548583827#0" to="26515803#1"/>
    <trip id="bus220" type="bus_bus" depart="505.96" departLane="best" from="366124401#0" to="24037542#2"/>
    <trip id="bus221" type="bus_bus" depart="508.26" departLane="best" from="25698850#2" to="110558597#1"/>
    <trip id="bus222" type="bus_bus" depart="510.56" departLane="best" from="-201565319#5" to="11406070#1"/>
    <trip id="bus223" type="bus_bus" depart="512.86" departLane="best" from="-8107349" to="1203511869#1"/>
    <trip id="bus224" type="bus_bus" depart="515.16" departLane="best" from="24005698" to="-26469305"/>
    <trip id="bus225" type="bus_bus" depart="517.46" departLane="best" from="-466170114#1" to="311154105#0"/>
    <trip id="bus226" type="bus_bus" depart="519.76" departLane="best" from="312567857#1" to="-184079881#1"/>
    <trip id="bus227" type="bus_bus" depart="522.06" departLane="best" from="-128169650#3" to="24311617#1"/>
    <trip id="bus228" type="bus_bus" depart="524.36" departLane="best" from="131977773" to="-517926116#0"/>
    <trip id="bus229" type="bus_bus" depart="526.66" departLane="best" from="-14849069#0" to="706503392"/>
    <trip id="bus230" type="bus_bus" depart="528.96" departLane="best" from="25078634#1" to="311154108#2"/>
    <trip id="bus231" type="bus_bus" depart="531.26" departLane="best" from="553377530" to="-367665286"/>
    <trip id="bus232" type="bus_bus" depart="533.56" departLane="best" from="-84565136#0" to="-1128250890"/>
    <trip id="bus233" type="bus_bus" depart="535.86" departLane="best" from="1205847093" to="-360568380#2"/>
    <trip id="bus234" type="bus_bus" depart="538.16" departLane="best" from="553360183" to="892576021#1"/>
    <trip id="bus235" type="bus_bus" depart="540.46" departLane="best" from="142172390#4" to="-346284006"/>
    <trip id="bus236" type="bus_bus" depart="542.76" departLane="best" from="240684776#0" to="25696810#0"/>
    <trip id="bus237" type="bus_bus" depart="545.06" departLane="best" from="405974798" to="553653977#0"/>
    <trip id="bus238" type="bus_bus" depart="547.36" departLane="best" from="165691550#1" to="124188441#0"/>
    <trip id="bus239" type="bus_bus" depart="549.66" departLane="best" from="1166228838#1" to="299715750#0"/>
    <trip id="bus240" type="bus_bus" depart="551.96" departLane="best" from="128169635#0" to="330258925"/>
    <trip id="bus241" type="bus_bus" depart="554.26" departLane="best" from="190584881#0" to="-25698854#0"/>
    <trip id="bus242" type="bus_bus" depart="556.56" departLane="best" from="25698837#1" to="1225366357"/>
    <trip id="bus243" type="bus_bus" depart="558.86" departLane="best" from="128169406" to="25077039#1"/>
    <trip id="bus244" type="bus_bus" depart="561.16" departLane="best" from="1197831675#3" to="26972151#6"/>
    <trip id="bus245" type="bus_bus" depart="563.46" departLane="best" from="-25432698" to="21894706#4"/>
    <trip id="bus246" type="bus_bus" depart="565.76" departLane="best" from="-367967151#4" to="1212252016"/>
    <trip id="bus247" type="bus_bus" depart="568.06" departLane="best" from="-363070249#2" to="-128169641#3"/>
    <trip id="bus248" type="bus_bus" depart="570.36" departLane="best" departSpeed="max" from="346293388" to="5147791#1"/>
    <trip id="bus249" type="bus_bus" depart="572.66" departLane="best" from="553653974" to="-21896445#0"/>
    <trip id="bus250" type="bus_bus" depart="574.96" departLane="best" from="1165420141" to="24269313#0"/>
    <trip id="bus252" type="bus_bus" depart="579.56" departLane="best" from="26469304#6" to="379541135"/>
    <trip id="bus253" type="bus_bus" depart="581.86" departLane="best" from="265879659#1" to="360569246#1"/>
    <trip id="bus254" type="bus_bus" depart="584.16" departLane="best" from="867900041" to="-466170114#0"/>
    <trip id="bus255" type="bus_bus" depart="586.46" departLane="best" from="-116691576#3" to="-31019933"/>
    <trip id="bus256" type="bus_bus" depart="588.76" departLane="best" from="-25079899" to="-296896081#0"/>
    <trip id="bus257" type="bus_bus" depart="591.06" departLane="best" from="-24345264#1" to="-553398840"/>
    <trip id="bus258" type="bus_bus" depart="593.36" departLane="best" from="310964815#2" to="367967151#2"/>
    <trip id="bus259" type="bus_bus" depart="595.66" departLane="best" departSpeed="max" from="-292332094" to="25698839#0"/>
    <trip id="bus260" type="bus_bus" depart="597.96" departLane="best" departSpeed="max" from="338459661#0" to="25313885#0"/>