<?xml version="1.0" encoding="UTF-8"?>

<!-- generated on 2024-04-23 19:43:51.706254 by osmWebWizard.py v1_19_0+0000-baa66a0f364
<configuration>
    <net-file value="F:\SUMO\OptimalEmission-SUMO-ReinforcementLearning\2024-04-23-19-43-03\osm.net.xml.gz"/>
    <output-trip-file value="F:\SUMO\OptimalEmission-SUMO-ReinforcementLearning\2024-04-23-19-43-03\osm.motorcycle.trips.xml"/>
    <route-file value="F:\SUMO\OptimalEmission-SUMO-ReinforcementLearning\2024-04-23-19-43-03\osm.motorcycle.rou.xml"/>
    <prefix value="motorcycle"/>
    <trip-attributes value="departLane=&quot;best&quot;"/>
    <fringe-start-attributes value="departSpeed=&quot;max&quot;"/>
    <vehicle-class value="motorcycle"/>
    <fringe-factor value="2"/>
    <vclass value="motorcycle"/>
    <via-edge-types value="highway.motorway,highway.motorway_link,highway.trunk_link,highway.primary_link,highway.secondary_link,highway.tertiary_link"/>
    <max-distance value="1200.0"/>
    <remove-loops value="True"/>
    <validate value="True"/>
    <insertion-density value="4.0"/>
</configuration>
-->

<!-- generated on 2024-04-23 19:43:51 by Eclipse SUMO duarouter Version 1.19.0
<configuration xmlns:xsi="http://www.w3.org/2001/XMLSchema-instance" xsi:noNamespaceSchemaLocation="http://sumo.dlr.de/xsd/duarouterConfiguration.xsd">

    <input>
        <net-file value="F:\SUMO\OptimalEmission-SUMO-ReinforcementLearning\2024-04-23-19-43-03\osm.net.xml.gz"/>
        <route-files value="F:\SUMO\OptimalEmission-SUMO-ReinforcementLearning\2024-04-23-19-43-03\osm.motorcycle.trips.xml"/>
    </input>

    <output>
        <output-file value="F:\SUMO\OptimalEmission-SUMO-ReinforcementLearning\2024-04-23-19-43-03\osm.motorcycle.trips.xml.tmp"/>
        <alternatives-output value="NUL"/>
        <write-trips value="true"/>
    </output>

    <processing>
        <remove-loops value="true"/>
    </processing>

    <time>
        <begin value="0.0"/>
        <end value="3600.0"/>
    </time>

    <report>
        <no-warnings value="true"/>
        <ignore-errors value="true"/>
        <no-step-log value="true"/>
    </report>

</configuration>
-->

<routes xmlns:xsi="http://www.w3.org/2001/XMLSchema-instance" xsi:noNamespaceSchemaLocation="http://sumo.dlr.de/xsd/routes_file.xsd">
    <vType id="motorcycle_motorcycle" vClass="motorcycle"/>
    <trip id="motorcycle0" type="motorcycle_motorcycle" depart="0.00" departLane="best" from="262231225#0" to="-1205847092"/>
    <trip id="motorcycle1" type="motorcycle_motorcycle" depart="2.31" departLane="best" from="-9813525#1" to="128169639#0"/>
    <trip id="motorcycle2" type="motorcycle_motorcycle" depart="4.63" departLane="best" from="165691540" to="124188441#1"/>
    <trip id="motorcycle3" type="motorcycle_motorcycle" depart="6.94" departLane="best" from="462384721#0" to="315038591"/>
    <trip id="motorcycle4" type="motorcycle_motorcycle" depart="9.25" departLane="best" from="-23226727#1" to="-24037540"/>
    <trip id="motorcycle5" type="motorcycle_motorcycle" depart="11.56" departLane="best" from="57403756#1" to="1030950563#0"/>
    <trip id="motorcycle6" type="motorcycle_motorcycle" depart="13.88" departLane="best" from="23226727#0" to="36568410#1"/>
    <trip id="motorcycle7" type="motorcycle_motorcycle" depart="16.19" departLane="best" from="38169392#2" to="24203344#10"/>
    <trip id="motorcycle9" type="motorcycle_motorcycle" depart="20.81" departLane="best" from="24203315#1" to="-875610382#1"/>
    <trip id="motorcycle10" type="motorcycle_motorcycle" depart="23.13" departLane="best" from="-38416146#0" to="116703651#3"/>
    <trip id="motorcycle11" type="motorcycle_motorcycle" depart="25.44" departLane="best" from="-542922266" to="-553398840"/>
    <trip id="motorcycle12" type="motorcycle_motorcycle" depart="27.75" departLane="best" from="553653978" to="-201565319#2"/>
    <trip id="motorcycle13" type="motorcycle_motorcycle" depart="30.06" departLane="best" from="-464432627#2" to="-259814574#0"/>
    <trip id="motorcycle14" type="motorcycle_motorcycle" depart="32.38" departLane="best" from="-9798952#1" to="24118556#1"/>
    <trip id="motorcycle15" type="motorcycle_motorcycle" depart="34.69" departLane="best" from="131977727#0" to="124188441#0"/>
    <trip id="motorcycle16" type="motorcycle_motorcycle" depart="37.00" departLane="best" from="184405663#1" to="-553653982#1"/>
    <trip id="motorcycle17" type="motorcycle_motorcycle" depart="39.31" departLane="best" from="190580946#2" to="171382784#0"/>
    <trip id="motorcycle18" type="motorcycle_motorcycle" depart="41.63" departLane="best" departSpeed="max" from="-292332094" to="939736596#0"/>
    <trip id="motorcycle19" type="motorcycle_motorcycle" depart="43.94" departLane="best" from="-553388945" to="25442735#0"/>
    <trip id="motorcycle20" type="motorcycle_motorcycle" depart="46.25" departLane="best" from="63682699#1" to="-875610382#0"/>
    <trip id="motorcycle21" type="motorcycle_motorcycle" depart="48.56" departLane="best" from="-191913067#2" to="-54209877#1"/>
    <trip id="motorcycle22" type="motorcycle_motorcycle" depart="50.88" departLane="best" from="288069909" to="317434805"/>
    <trip id="motorcycle23" type="motorcycle_motorcycle" depart="53.19" departLane="best" from="-496369652#4" to="115853938"/>
    <trip id="motorcycle24" type="motorcycle_motorcycle" depart="55.50" departLane="best" from="-24210220#1" to="24675159#3"/>
    <trip id="motorcycle25" type="motorcycle_motorcycle" depart="57.81" departLane="best" from="-165691554" to="1106814041"/>
    <trip id="motorcycle26" type="motorcycle_motorcycle" depart="60.13" departLane="best" from="54112596#1" to="25279171"/>
    <trip id="motorcycle28" type="motorcycle_motorcycle" depart="64.75" departLane="best" from="431224679" to="555526197"/>
    <trip id="motorcycle29" type="motorcycle_motorcycle" depart="67.07" departLane="best" from="116703652#0" to="409992195#0"/>
    <trip id="motorcycle30" type="motorcycle_motorcycle" depart="69.38" departLane="best" from="9797564#3" to="24262718#1"/>
    <trip id="motorcycle31" type="motorcycle_motorcycle" depart="71.69" departLane="best" from="128169579#1" to="25217449"/>
    <trip id="motorcycle32" type="motorcycle_motorcycle" depart="74.00" departLane="best" from="-24118556#2" to="-173278575"/>
    <trip id="motorcycle33" type="motorcycle_motorcycle" depart="76.32" departLane="best" from="23786272#0" to="-152650590#0"/>
    <trip id="motorcycle34" type="motorcycle_motorcycle" depart="78.63" departLane="best" departSpeed="max" from="-581325727" to="553121428"/>
    <trip id="motorcycle35" type="motorcycle_motorcycle" depart="80.94" departLane="best" from="323998834#0" to="23786271#4"/>
    <trip id="motorcycle36" type="motorcycle_motorcycle" depart="83.25" departLane="best" from="689510349" to="353070851"/>
    <trip id="motorcycle37" type="motorcycle_motorcycle" depart="85.57" departLane="best" from="124185220#1" to="-363312386#1"/>
    <trip id="motorcycle39" type="motorcycle_motorcycle" depart="90.19" departLane="best" from="-172699280" to="-1241676095"/>
    <trip id="motorcycle40" type="motorcycle_motorcycle" depart="92.50" departLane="best" from="1205847086" to="269078757#4"/>
    <trip id="motorcycle41" type="motorcycle_motorcycle" depart="94.82" departLane="best" departSpeed="max" from="366124409#0" to="-553653984#0"/>
    <trip id="motorcycle42" type="motorcycle_motorcycle" depart="97.13" departLane="best" from="36064008" to="536471632"/>
    <trip id="motorcycle43" type="motorcycle_motorcycle" depart="99.44" departLane="best" from="26972151#5" to="-38451540#0"/>
    <trip id="motorcycle44" type="motorcycle_motorcycle" depart="101.75" departLane="best" from="26978906#1" to="364403765"/>
    <trip id="motorcycle45" type="motorcycle_motorcycle" depart="104.07" departLane="best" from="-553369829" to="25444187#1"/>
    <trip id="motorcycle46" type="motorcycle_motorcycle" depart="106.38" departLane="best" from="-25215336#1" to="9798704"/>
    <trip id="motorcycle47" type="motorcycle_motorcycle" depart="108.69" departLane="best" from="-38811595#2" to="1259263049"/>
    <trip id="motorcycle48" type="motorcycle_motorcycle" depart="111.00" departLane="best" from="16604632" to="-128169531#1"/>
    <trip id="motorcycle49" type="motorcycle_motorcycle" depart="113.32" departLane="best" from="-24052353#2" to="939736596#0"/>
    <trip id="motorcycle50" type="motorcycle_motorcycle" depart="115.63" departLane="best" from="310155255#1" to="1165461456"/>
    <trip id="motorcycle51" type="motorcycle_motorcycle" depart="117.94" departLane="best" from="975716550#2" to="24037549"/>
    <trip id="motorcycle52" type="motorcycle_motorcycle" depart="120.25" departLane="best" from="-201565319#2" to="262231189#4"/>
    <trip id="motorcycle53" type="motorcycle_motorcycle" depart="122.57" departLane="best" from="25698854#0" to="25698843#3"/>
    <trip id="motorcycle54" type="motorcycle_motorcycle" depart="124.88" departLane="best" from="405263890#4" to="262072008#2"/>
    <trip id="motorcycle55" type="motorcycle_motorcycle" depart="127.19" departLane="best" from="165691569" to="-24314202#0"/>
    <trip id="motorcycle56" type="motorcycle_motorcycle" depart="129.51" departLane="best" from="269078060#0" to="749650361#2"/>
    <trip id="motorcycle57" type="motorcycle_motorcycle" depart="131.82" departLane="best" from="518329914#3" to="201565319#6"/>
    <trip id="motorcycle58" type="motorcycle_motorcycle" depart="134.13" departLane="best" from="305817719#0" to="315045833#0"/>
    <trip id="motorcycle59" type="motorcycle_motorcycle" depart="136.44" departLane="best" from="25215336#3" to="9617469#0"/>
    <trip id="motorcycle60" type="motorcycle_motorcycle" depart="138.76" departLane="best" from="243127383" to="23839763#1"/>
    <trip id="motorcycle61" type="motorcycle_motorcycle" depart="141.07" departLane="best" from="-9813296#2" to="54110335"/>
    <trip id="motorcycle62" type="motorcycle_motorcycle" depart="143.38" departLane="best" from="24311525#3" to="128169718"/>
    <trip id="motorcycle63" type="motorcycle_motorcycle" depart="145.69" departLane="best" from="57717637#1" to="-554983614"/>
    <trip id="motorcycle64" type="motorcycle_motorcycle" depart="148.01" departLane="best" from="23605367#2" to="501209223#2"/>
    <trip id="motorcycle65" type="motorcycle_motorcycle" depart="150.32" departLane="best" from="1055417660#1" to="-555526194#1"/>
    <trip id="motorcycle66" type="motorcycle_motorcycle" depart="152.63" departLane="best" from="24311617#1" to="24311526"/>
    <trip id="motorcycle67" type="motorcycle_motorcycle" depart="154.94" departLane="best" from="324495973#9" to="165691540"/>
    <trip id="motorcycle68" type="motorcycle_motorcycle" depart="157.26" departLane="best" from="1211284974" to="312567853"/>
    <trip id="motorcycle69" type="motorcycle_motorcycle" depart="159.57" departLane="best" from="553377532#1" to="553653974"/>
    <trip id="motorcycle70" type="motorcycle_motorcycle" depart="161.88" departLane="best" from="-354943937#1" to="-18662232#1"/>
    <trip id="motorcycle71" type="motorcycle_motorcycle" depart="164.19" departLane="best" from="322937691#1" to="-21894908#0"/>
    <trip id="motorcycle72" type="motorcycle_motorcycle" depart="166.51" departLane="best" from="-554983614" to="75502769#0"/>
    <trip id="motorcycle73" type="motorcycle_motorcycle" depart="168.82" departLane="best" from="1223619241" to="25419256#0"/>
    <trip id="motorcycle74" type="motorcycle_motorcycle" depart="171.13" departLane="best" from="226766487#3" to="722397831#0"/>
    <trip id="motorcycle75" type="motorcycle_motorcycle" depart="173.44" departLane="best" from="-1211920242" to="25313885#0"/>
    <trip id="motorcycle76" type="motorcycle_motorcycle" depart="175.76" departLane="best" from="296896090#2" to="25313884#3"/>
    <trip id="motorcycle77" type="motorcycle_motorcycle" depart="178.07" departLane="best" from="875602644#2" to="170123794#1"/>
    <trip id="motorcycle78" type="motorcycle_motorcycle" depart="180.38" departLane="best" from="895212011" to="-1263871626"/>
    <trip id="motorcycle79" type="motorcycle_motorcycle" depart="182.69" departLane="best" from="24262426#2" to="9796632#1"/>
    <trip id="motorcycle80" type="motorcycle_motorcycle" depart="185.01" departLane="best" from="125067712" to="15244017#0"/>
    <trip id="motorcycle81" type="motorcycle_motorcycle" depart="187.32" departLane="best" from="404468758#1" to="-844980638"/>
    <trip id="motorcycle83" type="motorcycle_motorcycle" depart="191.95" departLane="best" from="-636671563#0" to="-360568380#3"/>
    <trip id="motorcycle84" type="motorcycle_motorcycle" depart="194.26" departLane="best" from="38169390#5" to="-23989681#0"/>
    <trip id="motorcycle85" type="motorcycle_motorcycle" depart="196.57" departLane="best" from="24262418#0" to="23786270#2"/>
    <trip id="motorcycle86" type="motorcycle_motorcycle" depart="198.88" departLane="best" from="-1227297760#1" to="24345264#1"/>
    <trip id="motorcycle87" type="motorcycle_motorcycle" depart="201.20" departLane="best" from="116703652#1" to="9813296#3"/>
    <trip id="motorcycle88" type="motorcycle_motorcycle" depart="203.51" departLane="best" from="24006172" to="217902353#0"/>
    <trip id="motorcycle89" type="motorcycle_motorcycle" depart="205.82" departLane="best" from="1211920254#0" to="20830852#2"/>
    <trip id="motorcycle90" type="motorcycle_motorcycle" depart="208.13" departLane="best" from="-165691575#1" to="294829018"/>
    <trip id="motorcycle91" type="motorcycle_motorcycle" depart="210.45" departLane="best" from="127060142" to="367967151#5"/>
    <trip id="motorcycle92" type="motorcycle_motorcycle" depart="212.76" departLane="best" from="55055033#6" to="963339159#2"/>
    <trip id="motorcycle93" type="motorcycle_motorcycle" depart="215.07" departLane="best" from="555578558" to="25077352#0"/>
    <trip id="motorcycle94" type="motorcycle_motorcycle" depart="217.38" departLane="best" from="21895721#4" to="-152839277#3"/>
    <trip id="motorcycle95" type="motorcycle_motorcycle" depart="219.70" departLane="best" from="296916318#1" to="-1085625386#0"/>
    <trip id="motorcycle96" type="motorcycle_motorcycle" depart="222.01" departLane="best" from="8034419#1" to="554969174"/>
    <trip id="motorcycle97" type="motorcycle_motorcycle" depart="224.32" departLane="best" from="322822557#0" to="-316186226#4"/>
    <trip id="motorcycle98" type="motorcycle_motorcycle" depart="226.63" departLane="best" from="-116703651#2" to="440080278#12"/>
    <trip id="motorcycle99" type="motorcycle_motorcycle" depart="228.95" departLane="best" from="25698848#0" to="536471632"/>
    <trip id="motorcycle100" type="motorcycle_motorcycle" depart="231.26" departLane="best" from="55055033#2" to="-844980638"/>
    <trip id="motorcycle101" type="motorcycle_motorcycle" depart="233.57" departLane="best" from="25442743#0" to="367665284"/>
    <trip id="motorcycle102" type="motorcycle_motorcycle" depart="235.88" departLane="best" from="378102672#0" to="23605356#0"/>
    <trip id="motorcycle103" type="motorcycle_motorcycle" depart="238.20" departLane="best" from="363070249#5" to="-366125852#3"/>
    <trip id="motorcycle104" type="motorcycle_motorcycle" depart="240.51" departLane="best" from="188278096#1" to="813494818#0"/>
    <trip id="motorcycle105" type="motorcycle_motorcycle" depart="242.82" departLane="best" from="553398825#0" to="25699876#2"/>
    <trip id="motorcycle106" type="motorcycle_motorcycle" depart="245.13" departLane="best" departSpeed="max" from="-24035721" to="691417330"/>
    <trip id="motorcycle107" type="motorcycle_motorcycle" depart="247.45" departLane="best" from="179940536#0" to="-24037540"/>
    <trip id="motorcycle108" type="motorcycle_motorcycle" depart="249.76" departLane="best" from="-260713286" to="1265887684#0"/>
    <trip id="motorcycle109" type="motorcycle_motorcycle" depart="252.07" departLane="best" from="128169641#1" to="25442739#2"/>
    <trip id="motorcycle110" type="motorcycle_motorcycle" depart="254.39" departLane="best" from="519772330#2" to="337893921#1"/>
    <trip id="motorcycle111" type="motorcycle_motorcycle" depart="256.70" departLane="best" from="363070250" to="1231329985#0"/>
    <trip id="motorcycle112" type="motorcycle_motorcycle" depart="259.01" departLane="best" from="536471632" to="374851665"/>
    <trip id="motorcycle113" type="motorcycle_motorcycle" depart="261.32" departLane="best" from="553398825#1" to="1137322916"/>
    <trip id="motorcycle114" type="motorcycle_motorcycle" depart="263.64" departLane="best" from="9615193#1" to="485679287#0"/>
    <trip id="motorcycle115" type="motorcycle_motorcycle" depart="265.95" departLane="best" from="572309213" to="-24675205#1"/>
    <trip id="motorcycle116" type="motorcycle_motorcycle" depart="268.26" departLane="best" from="-24006044#0" to="55055033#6"/>
    <trip id="motorcycle117" type="motorcycle_motorcycle" depart="270.57" departLane="best" from="-553388952" to="9813296#2"/>
    <trip id="motorcycle118" type="motorcycle_motorcycle" depart="272.89" departLane="best" from="26972151#4" to="-409992194#4"/>
    <trip id="motorcycle119" type="motorcycle_motorcycle" depart="275.20" departLane="best" from="292368621" to="-226764669#1"/>
    <trip id="motorcycle120" type="motorcycle_motorcycle" depart="277.51" departLane="best" from="128169630#6" to="21896445#1"/>
    <trip id="motorcycle121" type="motorcycle_motorcycle" depart="279.82" departLane="best" from="191684418#2" to="1148976652"/>
    <trip id="motorcycle122" type="motorcycle_motorcycle" depart="282.14" departLane="best" from="-555526197" to="1220559834"/>
    <trip id="motorcycle123" type="motorcycle_motorcycle" depart="284.45" departLane="best" from="-25302553" to="128169471"/>
    <trip id="motorcycle124" type="motorcycle_motorcycle" depart="286.76" departLane="best" from="63682673#1" to="351730536#1"/>
    <trip id="motorcycle125" type="motorcycle_motorcycle" depart="289.07" departLane="best" from="299715750#0" to="-904952224"/>
    <trip id="motorcycle126" type="motorcycle_motorcycle" depart="291.39" departLane="best" from="247205061#0" to="25696810#5"/>
    <trip id="motorcycle127" type="motorcycle_motorcycle" depart="293.70" departLane="best" from="25077304#1" to="24203323#1"/>
    <trip id="motorcycle128" type="motorcycle_motorcycle" depart="296.01" departLane="best" from="128169602#1" to="249834933#1"/>
    <trip id="motorcycle130" type="motorcycle_motorcycle" depart="300.64" departLane="best" from="1082623720#0" to="78414958#1"/>
    <trip id="motorcycle131" type="motorcycle_motorcycle" depart="302.95" departLane="best" from="55055052" to="1201861992#0"/>
    <trip id="motorcycle132" type="motorcycle_motorcycle" depart="305.26" departLane="best" from="63682673#0" to="23897495"/>
    <trip id="motorcycle133" type="motorcycle_motorcycle" depart="307.57" departLane="best" from="-25215336#3" to="466382850"/>
    <trip id="motorcycle134" type="motorcycle_motorcycle" depart="309.89" departLane="best" from="-21896445#1" to="116691576#3"/>
    <trip id="motorcycle135" type="motorcycle_motorcycle" depart="312.20" departLane="best" from="321699323#3" to="-301007415#3"/>
    <trip id="motorcycle136" type="motorcycle_motorcycle" depart="314.51" departLane="best" from="1220559832#0" to="57690817"/>
    <trip id="motorcycle138" type="motorcycle_motorcycle" depart="319.14" departLane="best" from="-270200288#0" to="330660906"/>
    <trip id="motorcycle139" type="motorcycle_motorcycle" depart="321.45" departLane="best" from="282830445#4" to="-324496066#1"/>
    <trip id="motorcycle140" type="motorcycle_motorcycle" depart="323.76" departLane="best" from="22790424#1" to="-262231174"/>
    <trip id="motorcycle141" type="motorcycle_motorcycle" depart="326.08" departLane="best" from="179940536#1" to="22790420#1"/>
    <trip id="motorcycle142" type="motorcycle_motorcycle" depart="328.39" departLane="best" from="23786260#1" to="23786221#0"/>
    <trip id="motorcycle144" type="motorcycle_motorcycle" depart="333.01" departLane="best" from="21893273#1" to="21885793#5"/>
    <trip id="motorcycle145" type="motorcycle_motorcycle" depart="335.33" departLane="best" from="1173944646#1" to="25698852#2"/>
    <trip id="motorcycle146" type="motorcycle_motorcycle" depart="337.64" departLane="best" from="-1271262071#1" to="298774224#2"/>
    <trip id="motorcycle147" type="motorcycle_motorcycle" depart="339.95" departLane="best" from="-38811595#4" to="381126556#1"/>
    <trip id="motorcycle148" type="motorcycle_motorcycle" depart="342.26" departLane="best" from="-25079899" to="32637818#0"/>
    <trip id="motorcycle149" type="motorcycle_motorcycle" depart="344.58" departLane="best" from="-25699878#0" to="-5147797#0"/>
    <trip id="motorcycle150" type="motorcycle_motorcycle" depart="346.89" departLane="best" from="298774225" to="-128169641#1"/>
    <trip id="motorcycle151" type="motorcycle_motorcycle" depart="349.20" departLane="best" from="184228328#4" to="-9798952#1"/>
    <trip id="motorcycle152" type="motorcycle_motorcycle" depart="351.51" departLane="best" from="312567856#0" to="-262551662#3"/>
    <trip id="motorcycle153" type="motorcycle_motorcycle" depart="353.83" departLane="best" from="24304758" to="815635147"/>
    <trip id="motorcycle154" type="motorcycle_motorcycle" depart="356.14" departLane="best" from="602961291" to="-361469351#1"/>
    <trip id="motorcycle155" type="motorcycle_motorcycle" depart="358.45" departLane="best" from="24210220#2" to="9798492#0"/>
    <trip id="motorcycle156" type="motorcycle_motorcycle" depart="360.76" departLane="best" from="-25079899" to="1166228837#0"/>
    <trip id="motorcycle157" type="motorcycle_motorcycle" depart="363.08" departLane="best" from="25698838" to="-553388945"/>
    <trip id="motorcycle158" type="motorcycle_motorcycle" depart="365.39" departLane="best" from="35553136#2" to="25696815#0"/>
    <trip id="motorcycle159" type="motorcycle_motorcycle" depart="367.70" departLane="best" from="-156974362" to="24491869#0"/>
    <trip id="motorcycle161" type="motorcycle_motorcycle" depart="372.33" departLane="best" from="268502472#1" to="1212349294#4"/>
    <trip id="motorcycle162" type="motorcycle_motorcycle" depart="374.64" departLane="best" from="-152839277#3" to="21893921#0"/>
    <trip id="motorcycle163" type="motorcycle_motorcycle" depart="376.95" departLane="best" from="464432627#0" to="327231751#0"/>
    <trip id="motorcycle164" type="motorcycle_motorcycle" depart="379.27" departLane="best" from="-574782498#0" to="1253270544"/>
    <trip id="motorcycle165" type="motorcycle_motorcycle" depart="381.58" departLane="best" from="114076289#3" to="-51029750"/>
    <trip id="motorcycle166" type="motorcycle_motorcycle" depart="383.89" departLane="best" from="-128169691" to="339516603#4"/>
    <trip id="motorcycle167" type="motorcycle_motorcycle" depart="386.20" departLane="best" from="152833107#1" to="23786270#2"/>
    <trip id="motorcycle168" type="motorcycle_motorcycle" depart="388.52" departLane="best" from="226765468#4" to="9617152"/>
    <trip id="motorcycle169" type="motorcycle_motorcycle" depart="390.83" departLane="best" from="24533550" to="-262231170"/>
    <trip id="motorcycle170" type="motorcycle_motorcycle" depart="393.14" departLane="best" from="-936795546" to="298774224#2"/>
    <trip id="motorcycle171" type="motorcycle_motorcycle" depart="395.45" departLane="best" from="1201861992#0" to="914641146#1"/>
    <trip id="motorcycle172" type="motorcycle_motorcycle" depart="397.77" departLane="best" from="1253270544" to="10223631"/>
    <trip id="motorcycle173" type="motorcycle_motorcycle" depart="400.08" departLane="best" from="21885793#1" to="543852232"/>
    <trip id="motorcycle175" type="motorcycle_motorcycle" depart="404.70" departLane="best" from="25094694" to="-316186226#4"/>
    <trip id="motorcycle176" type="motorcycle_motorcycle" depart="407.02" departLane="best" from="128169470#0" to="539425353"/>
    <trip id="motorcycle178" type="motorcycle_motorcycle" depart="411.64" departLane="best" from="225111778#0" to="78414962#0"/>
    <trip id="motorcycle179" type="motorcycle_motorcycle" depart="413.95" departLane="best" from="127553974#2" to="-25699884#1"/>
    <trip id="motorcycle180" type="motorcycle_motorcycle" depart="416.27" departLane="best" from="140781226#1" to="25077186#1"/>
    <trip id="motorcycle181" type="motorcycle_motorcycle" depart="418.58" departLane="best" from="-201565319#3" to="813689945#0"/>
    <trip id="motorcycle182" type="motorcycle_motorcycle" depart="420.89" departLane="best" from="706503392" to="25076992#1"/>
    <trip id="motorcycle183" type="motorcycle_motorcycle" depart="423.20" departLane="best" from="908087823" to="14869457#0"/>
    <trip id="motorcycle184" type="motorcycle_motorcycle" depart="425.52" departLane="best" from="-360568380#0" to="-201565319#3"/>
    <trip id="motorcycle185" type="motorcycle_motorcycle" depart="427.83" departLane="best" from="736516758" to="9796768"/>
    <trip id="motorcycle186" type="motorcycle_motorcycle" depart="430.14" departLane="best" from="165691574" to="-165691575#1"/>
    <trip id="motorcycle187" type="motorcycle_motorcycle" depart="432.46" departLane="best" from="1189183440#0" to="320192378#1"/>
    <trip id="motorcycle188" type="motorcycle_motorcycle" depart="434.77" departLane="best" from="1166228837#1" to="8901631#1"/>
    <trip id="motorcycle189" type="motorcycle_motorcycle" depart="437.08" departLane="best" from="9614353" to="9615927#0"/>
    <trip id="motorcycle190" type="motorcycle_motorcycle" depart="439.39" departLane="best" from="-226764669#0" to="25217271"/>
    <trip id="motorcycle191" type="motorcycle_motorcycle" depart="441.71" departLane="best" from="-555522868" to="128169608#3"/>
    <trip id="motorcycle192" type="motorcycle_motorcycle" depart="444.02" departLane="best" from="-245403951" to="25076992#3"/>
    <trip id="motorcycle193" type="motorcycle_motorcycle" depart="446.33" departLane="best" from="25313884#5" to="24314355#1"/>
    <trip id="motorcycle194" type="motorcycle_motorcycle" depart="448.64" departLane="best" from="282830445#4" to="-323998793#2"/>
    <trip id="motorcycle195" type="motorcycle_motorcycle" depart="450.96" departLane="best" from="9811755#0" to="226764676#0"/>
    <trip id="motorcycle196" type="motorcycle_motorcycle" depart="453.27" departLane="best" from="801626281" to="312316948"/>
    <trip id="motorcycle197" type="motorcycle_motorcycle" depart="455.58" departLane="best" from="-1137322916" to="-9813505#2"/>
    <trip id="motorcycle198" type="motorcycle_motorcycle" depart="457.89" departLane="best" from="-23226585#1" to="125067697#0"/>
    <trip id="motorcycle199" type="motorcycle_motorcycle" depart="460.21" departLane="best" from="-1181990499" to="-245403951"/>
    <trip id="motorcycle200" type="motorcycle_motorcycle" depart="462.52" departLane="best" from="-262072008#0" to="116703651#3"/>
    <trip id="motorcycle201" type="motorcycle_motorcycle" depart="464.83" departLane="best" from="466393862#3" to="25313885#0"/>
    <trip id="motorcycle202" type="motorcycle_motorcycle" depart="467.14" departLane="best" from="360786544#0" to="466170113#1"/>
    <trip id="motorcycle203" type="motorcycle_motorcycle" depart="469.46" departLane="best" from="484274982" to="24262858#0"/>
    <trip id="motorcycle204" type="motorcycle_motorcycle" depart="471.77" departLane="best" from="25077186#0" to="1164668791"/>
    <trip id="motorcycle205" type="motorcycle_motorcycle" depart="474.08" departLane="best" from="354943943#2" to="-263646495#1"/>
    <trip id="motorcycle207" type="motorcycle_motorcycle" depart="478.71" departLane="best" from="23605346#2" to="23605367#1"/>
    <trip id="motorcycle208" type="motorcycle_motorcycle" depart="481.02" departLane="best" from="54533182#1" to="23226807#0"/>
    <trip id="motorcycle209" type="motorcycle_motorcycle" depart="483.33" departLane="best" from="339516603#4" to="373772722#0"/>
    <trip id="motorcycle210" type="motorcycle_motorcycle" depart="485.64" departLane="best" from="1137320417" to="989434779"/>
    <trip id="motorcycle211" type="motorcycle_motorcycle" depart="487.96" departLane="best" from="1106761377" to="105512910"/>
    <trip id="motorcycle212" type="motorcycle_motorcycle" depart="490.27" departLane="best" from="788526731" to="9812431#2"/>
    <trip id="motorcycle213" type="motorcycle_motorcycle" depart="492.58" departLane="best" from="322937682#0" to="518329918#1"/>
    <trip id="motorcycle214" type="motorcycle_motorcycle" depart="494.90" departLane="best" from="366124409#2" to="299659654"/>
    <trip id="motorcycle215" type="motorcycle_motorcycle" depart="497.21" departLane="best" from="226763076#1" to="252447013"/>
    <trip id="motorcycle216" type="motorcycle_motorcycle" depart="499.52" departLane="best" from="189826952" to="-262551662#1"/>
    <trip id="motorcycle217" type="motorcycle_motorcycle" depart="501.83" departLane="best" from="596419438" to="-23681389#1"/>
    <trip id="motorcycle218" type="motorcycle_motorcycle" depart="504.15" departLane="best" from="23786265" to="1122322113"/>
    <trip id="motorcycle219" type="motorcycle_motorcycle" depart="506.46" departLane="best" from="892576017#2" to="-1212252017#1"/>
    <trip id="motorcycle220" type="motorcycle_motorcycle" depart="508.77" departLane="best" from="936795546" to="-518329918#0"/>
    <trip id="motorcycle221" type="motorcycle_motorcycle" depart="511.08" departLane="best" from="835330905" to="25263678"/>
    <trip id="motorcycle222" type="motorcycle_motorcycle" depart="513.40" departLane="best" from="1217778386" to="303205700#0"/>
    <trip id="motorcycle223" type="motorcycle_motorcycle" depart="515.71" departLane="best" from="-25265170" to="553642637#0"/>
    <trip id="motorcycle224" type="motorcycle_motorcycle" depart="518.02" departLane="best" from="916003743#1" to="-483001049#1"/>
    <trip id="motorcycle225" type="motorcycle_motorcycle" depart="520.33" departLane="best" from="305817427" to="24269303#2"/>