<?xml version="1.0" encoding="UTF-8"?>

<!-- generated on 2024-04-23 19:44:22.044974 by osmWebWizard.py v1_19_0+0000-baa66a0f364
<configuration>
    <net-file value="F:\SUMO\OptimalEmission-SUMO-ReinforcementLearning\2024-04-23-19-43-03\osm.net.xml.gz"/>
    <output-trip-file value="F:\SUMO\OptimalEmission-SUMO-ReinforcementLearning\2024-04-23-19-43-03\osm.truck.trips.xml"/>
    <route-file value="F:\SUMO\OptimalEmission-SUMO-ReinforcementLearning\2024-04-23-19-43-03\osm.truck.rou.xml"/>
    <prefix value="truck"/>
    <trip-attributes value="departLane=&quot;best&quot;"/>
    <fringe-start-attributes value="departSpeed=&quot;max&quot;"/>
    <vehicle-class value="truck"/>
    <fringe-factor value="5"/>
    <vclass value="truck"/>
    <via-edge-types value="highway.motorway,highway.motorway_link,highway.trunk_link,highway.primary_link,highway.secondary_link,highway.tertiary_link"/>
    <min-distance value="600.0"/>
    <min-distance.fringe value="10.0"/>
    <remove-loops value="True"/>
    <validate value="True"/>
    <insertion-density value="8.0"/>
</configuration>
-->

<!-- generated on 2024-04-23 19:44:18 by Eclipse SUMO duarouter Version 1.19.0
<configuration xmlns:xsi="http://www.w3.org/2001/XMLSchema-instance" xsi:noNamespaceSchemaLocation="http://sumo.dlr.de/xsd/duarouterConfiguration.xsd">

    <input>
        <net-file value="F:\SUMO\OptimalEmission-SUMO-ReinforcementLearning\2024-04-23-19-43-03\osm.net.xml.gz"/>
        <route-files value="F:\SUMO\OptimalEmission-SUMO-ReinforcementLearning\2024-04-23-19-43-03\osm.truck.trips.xml"/>
    </input>

    <output>
        <output-file value="F:\SUMO\OptimalEmission-SUMO-ReinforcementLearning\2024-04-23-19-43-03\osm.truck.trips.xml.tmp"/>
        <alternatives-output value="NUL"/>
        <write-trips value="true"/>
    </output>

    <processing>
        <remove-loops value="true"/>
    </processing>

    <time>
        <begin value="0.0"/>
        <end value="3600.0"/>
    </time>

    <report>
        <no-warnings value="true"/>
        <ignore-errors value="true"/>
        <no-step-log value="true"/>
    </report>

</configuration>
-->

<routes xmlns:xsi="http://www.w3.org/2001/XMLSchema-instance" xsi:noNamespaceSchemaLocation="http://sumo.dlr.de/xsd/routes_file.xsd">
    <vType id="truck_truck" vClass="truck"/>
    <trip id="truck0" type="truck_truck" depart="0.00" departLane="best" from="260321636#0" to="1205847092"/>
    <trip id="truck1" type="truck_truck" depart="1.16" departLane="best" departSpeed="max" from="-815635147" to="-554989557"/>
    <trip id="truck2" type="truck_truck" depart="2.33" departLane="best" from="-330259326" to="298774225"/>
    <trip id="truck3" type="truck_truck" depart="3.49" departLane="best" from="63682671#1" to="-226765463"/>
    <trip id="truck4" type="truck_truck" depart="4.65" departLane="best" from="-125067690#0" to="1245386802"/>
    <trip id="truck5" type="truck_truck" depart="5.82" departLane="best" from="-381126555#0" to="23897559#1"/>
    <trip id="truck6" type="truck_truck" depart="6.98" departLane="best" from="-1188956037" to="-464432627#0"/>
    <trip id="truck7" type="truck_truck" depart="8.14" departLane="best" from="262551662#0" to="24314202#2"/>
    <trip id="truck8" type="truck_truck" depart="9.30" departLane="best" from="-38811595#2" to="25427802"/>
    <trip id="truck9" type="truck_truck" depart="10.47" departLane="best" from="448951684#1" to="-1132477871#0"/>
    <trip id="truck10" type="truck_truck" depart="11.63" departLane="best" from="440080278#6" to="312661939"/>
    <trip id="truck11" type="truck_truck" depart="12.79" departLane="best" from="-116697533#0" to="312661939"/>
    <trip id="truck12" type="truck_truck" depart="13.96" departLane="best" from="908087823" to="124185220#1"/>
    <trip id="truck13" type="truck_truck" depart="15.12" departLane="best" from="226765462" to="-24037540"/>
    <trip id="truck15" type="truck_truck" depart="17.45" departLane="best" departSpeed="max" from="4473078" to="-32844006#1"/>
    <trip id="truck16" type="truck_truck" depart="18.61" departLane="best" from="23989430#0" to="9616886#2"/>
    <trip id="truck17" type="truck_truck" depart="19.77" departLane="best" from="1265887684#1" to="246710877#2"/>
    <trip id="truck18" type="truck_truck" depart="20.93" departLane="best" from="5133894#0" to="257686309"/>
    <trip id="truck19" type="truck_truck" depart="22.10" departLane="best" from="553642637#1" to="25217272#0"/>
    <trip id="truck20" type="truck_truck" depart="23.26" departLane="best" from="312567857#0" to="-135198589"/>
    <trip id="truck21" type="truck_truck" depart="24.42" departLane="best" from="-431400698#0" to="11406696#2"/>
    <trip id="truck22" type="truck_truck" depart="25.59" departLane="best" from="-202014800#0" to="63682666#3"/>
    <trip id="truck23" type="truck_truck" depart="26.75" departLane="best" departSpeed="max" from="-23839763#5" to="1123274837#0"/>
    <trip id="truck24" type="truck_truck" depart="27.91" departLane="best" from="25699884#1" to="128169400#1"/>
    <trip id="truck25" type="truck_truck" depart="29.08" departLane="best" from="1246098098#2" to="518329918#1"/>
    <trip id="truck26" type="truck_truck" depart="30.24" departLane="best" departSpeed="max" from="-581325727" to="835767927#2"/>
    <trip id="truck27" type="truck_truck" depart="31.40" departLane="best" from="262231192#2" to="-25698841#2"/>
    <trip id="truck28" type="truck_truck" depart="32.57" departLane="best" departSpeed="max" from="-293666637" to="328431907#0"/>
    <trip id="truck29" type="truck_truck" depart="33.73" departLane="best" departSpeed="max" from="-26972208" to="128169691"/>
    <trip id="truck30" type="truck_truck" depart="34.89" departLane="best" from="9811444#1" to="26515803#2"/>
    <trip id="truck31" type="truck_truck" depart="36.05" departLane="best" from="24269061#1" to="303205700#0"/>
    <trip id="truck32" type="truck_truck" depart="37.22" departLane="best" from="54236653#1" to="378102673#2"/>
    <trip id="truck33" type="truck_truck" depart="38.38" departLane="best" from="440080278#10" to="-1263871624#1"/>
    <trip id="truck34" type="truck_truck" depart="39.54" departLane="best" from="113628997" to="1055417665"/>
    <trip id="truck35" type="truck_truck" depart="40.71" departLane="best" from="36568424" to="84622533#1"/>
    <trip id="truck36" type="truck_truck" depart="41.87" departLane="best" from="315045837" to="1187891489"/>
    <trip id="truck37" type="truck_truck" depart="43.03" departLane="best" from="265879660#3" to="15244017#2"/>
    <trip id="truck38" type="truck_truck" depart="44.20" departLane="best" departSpeed="max" from="75502767" to="21893921#1"/>
    <trip id="truck39" type="truck_truck" depart="45.36" departLane="best" from="-574782505" to="875610382#0"/>
    <trip id="truck40" type="truck_truck" depart="46.52" departLane="best" departSpeed="max" from="24303333#0" to="10224527#1"/>
    <trip id="truck41" type="truck_truck" depart="47.68" departLane="best" from="25077039#1" to="660151539"/>
    <trip id="truck42" type="truck_truck" depart="48.85" departLane="best" from="128169579#0" to="-553642637#0"/>
    <trip id="truck43" type="truck_truck" depart="50.01" departLane="best" from="981527816#0" to="23989654"/>
    <trip id="truck44" type="truck_truck" depart="51.17" departLane="best" from="-225427372#3" to="-142172390#6"/>
    <trip id="truck45" type="truck_truck" depart="52.34" departLane="best" departSpeed="max" from="-24006044#1" to="262231176"/>
    <trip id="truck46" type="truck_truck" depart="53.50" departLane="best" from="405263890#2" to="-176039470#0"/>
    <trip id="truck47" type="truck_truck" depart="54.66" departLane="best" from="159809191#3" to="128169796#1"/>
    <trip id="truck48" type="truck_truck" depart="55.83" departLane="best" from="9813525#1" to="24203344#0"/>
    <trip id="truck49" type="truck_truck" depart="56.99" departLane="best" from="9615973" to="553398840"/>
    <trip id="truck50" type="truck_truck" depart="58.15" departLane="best" from="-11405893#2" to="-32427005#0"/>
    <trip id="truck51" type="truck_truck" depart="59.32" departLane="best" departSpeed="max" from="-581325727" to="265879660#3"/>
    <trip id="truck52" type="truck_truck" depart="60.48" departLane="best" departSpeed="max" from="-24037542#2" to="188278101#2"/>
    <trip id="truck53" type="truck_truck" depart="61.64" departLane="best" from="24203473#0" to="896198994#0"/>
    <trip id="truck54" type="truck_truck" depart="62.80" departLane="best" from="56066922" to="1030950568"/>
    <trip id="truck55" type="truck_truck" depart="63.97" departLane="best" from="222606516#1" to="363070249#3"/>
    <trip id="truck56" type="truck_truck" depart="65.13" departLane="best" departSpeed="max" from="750632124#0" to="555567150"/>
    <trip id="truck57" type="truck_truck" depart="66.29" departLane="best" from="10370212#0" to="26515802#2"/>
    <trip id="truck58" type="truck_truck" depart="67.46" departLane="best" departSpeed="max" from="25432727#0" to="30889907#0"/>
    <trip id="truck59" type="truck_truck" depart="68.62" departLane="best" from="364403765" to="24269291#1"/>
    <trip id="truck60" type="truck_truck" depart="69.78" departLane="best" from="378102672#1" to="24203344#10"/>
    <trip id="truck61" type="truck_truck" depart="70.95" departLane="best" departSpeed="max" from="-1013694274#1" to="1211920255#0"/>
    <trip id="truck62" type="truck_truck" depart="72.11" departLane="best" from="-1164668780" to="814195338#0"/>
    <trip id="truck63" type="truck_truck" depart="73.27" departLane="best" from="57403752#1" to="516818990"/>
    <trip id="truck64" type="truck_truck" depart="74.43" departLane="best" from="110558599#1" to="-165691577#0"/>
    <trip id="truck65" type="truck_truck" depart="75.60" departLane="best" departSpeed="max" from="57403090#0" to="856284795#3"/>
    <trip id="truck66" type="truck_truck" depart="76.76" departLane="best" from="-21894828#2" to="234250239#0"/>
    <trip id="truck67" type="truck_truck" depart="77.92" departLane="best" from="-169842663#4" to="366124405"/>
    <trip id="truck68" type="truck_truck" depart="79.09" departLane="best" from="366124406#0" to="-25699878#0"/>
    <trip id="truck69" type="truck_truck" depart="80.25" departLane="best" from="152650590#0" to="24491869#0"/>
    <trip id="truck70" type="truck_truck" depart="81.41" departLane="best" from="-57690816" to="555576770"/>
    <trip id="truck71" type="truck_truck" depart="82.58" departLane="best" from="152745514" to="-54112596#0"/>
    <trip id="truck72" type="truck_truck" depart="83.74" departLane="best" from="23989910" to="32891781"/>
    <trip id="truck73" type="truck_truck" depart="84.90" departLane="best" from="335581289#1" to="116703721#0"/>
    <trip id="truck74" type="truck_truck" depart="86.07" departLane="best" from="9813357#1" to="275036770#0"/>
    <trip id="truck75" type="truck_truck" depart="87.23" departLane="best" from="-165691568" to="24005922#0"/>
    <trip id="truck76" type="truck_truck" depart="88.39" departLane="best" departSpeed="max" from="-24314202#2" to="555522869"/>
    <trip id="truck77" type="truck_truck" depart="89.55" departLane="best" from="399745286" to="25427801#0"/>
    <trip id="truck78" type="truck_truck" depart="90.72" departLane="best" from="-440080278#5" to="-553653977#0"/>
    <trip id="truck79" type="truck_truck" depart="91.88" departLane="best" from="176039470#2" to="262231191#4"/>
    <trip id="truck80" type="truck_truck" depart="93.04" departLane="best" from="-440080278#1" to="711505222#0"/>
    <trip id="truck81" type="truck_truck" depart="94.21" departLane="best" from="553394985" to="-195071786#0"/>
    <trip id="truck82" type="truck_truck" depart="95.37" departLane="best" departSpeed="max" from="-487518035#1" to="296814387#0"/>
    <trip id="truck83" type="truck_truck" depart="96.53" departLane="best" from="-367967151#7" to="-259814574#0"/>
    <trip id="truck84" type="truck_truck" depart="97.70" departLane="best" from="835767927#2" to="25080184#1"/>
    <trip id="truck85" type="truck_truck" depart="98.86" departLane="best" departSpeed="max" from="191913090" to="38169398#1"/>
    <trip id="truck86" type="truck_truck" depart="100.02" departLane="best" departSpeed="max" from="4473078" to="-405263890#2"/>
    <trip id="truck87" type="truck_truck" depart="101.18" departLane="best" from="234250239#0" to="186724109"/>
    <trip id="truck88" type="truck_truck" depart="102.35" departLane="best" from="152833098#6" to="220028264"/>
    <trip id="truck89" type="truck_truck" depart="103.51" departLane="best" from="9798564#1" to="24118556#2"/>
    <trip id="truck90" type="truck_truck" depart="104.67" departLane="best" from="128169608#3" to="1246098098#2"/>
    <trip id="truck91" type="truck_truck" depart="105.84" departLane="best" from="-553360186#0" to="904952230#2"/>
    <trip id="truck92" type="truck_truck" depart="107.00" departLane="best" from="323998820#0" to="207394645"/>
    <trip id="truck93" type="truck_truck" depart="108.16" departLane="best" from="-548583827#0" to="8902008#2"/>
    <trip id="truck94" type="truck_truck" depart="109.33" departLane="best" from="-169842663#2" to="327430635#0"/>
    <trip id="truck95" type="truck_truck" depart="110.49" departLane="best" from="24203323#1" to="-152837281#0"/>
    <trip id="truck97" type="truck_truck" depart="112.82" departLane="best" from="9615338#2" to="813494818#1"/>
    <trip id="truck98" type="truck_truck" depart="113.98" departLane="best" from="549697692" to="-332226794#1"/>
    <trip id="truck99" type="truck_truck" depart="115.14" departLane="best" from="21886942#0" to="548430811#0"/>
    <trip id="truck100" type="truck_truck" depart="116.30" departLane="best" from="128169590#3" to="-165713711#0"/>
    <trip id="truck101" type="truck_truck" depart="117.47" departLane="best" from="1265887685#1" to="9810431#0"/>
    <trip id="truck102" type="truck_truck" depart="118.63" departLane="best" from="-57690817" to="38169393#2"/>
    <trip id="truck104" type="truck_truck" depart="120.96" departLane="best" from="908087824" to="-9813505#1"/>
    <trip id="truck105" type="truck_truck" depart="122.12" departLane="best" from="24262426#1" to="323998809#0"/>
    <trip id="truck106" type="truck_truck" depart="123.28" departLane="best" from="262231176" to="1156594749"/>
    <trip id="truck107" type="truck_truck" depart="124.45" departLane="best" from="9615338#0" to="25265168#0"/>
    <trip id="truck108" type="truck_truck" depart="125.61" departLane="best" from="-262231178" to="35553136#2"/>
    <trip id="truck109" type="truck_truck" depart="126.77" departLane="best" from="-14849069#0" to="25279176"/>
    <trip id="truck110" type="truck_truck" depart="127.93" departLane="best" from="226763076#1" to="55055057#1"/>
    <trip id="truck111" type="truck_truck" depart="129.10" departLane="best" from="-263646495#0" to="916471339#2"/>
    <trip id="truck112" type="truck_truck" depart="130.26" departLane="best" from="-202014800#2" to="-378102673#0"/>
    <trip id="truck113" type="truck_truck" depart="131.42" departLane="best" from="25217270#1" to="298468994#1"/>
    <trip id="truck114" type="truck_truck" depart="132.59" departLane="best" departSpeed="max" from="-46874661#2" to="25442734#0"/>
    <trip id="truck115" type="truck_truck" depart="133.75" departLane="best" from="63682618#1" to="-852311791"/>
    <trip id="truck116" type="truck_truck" depart="134.91" departLane="best" from="-25215336#2" to="259048743#1"/>
    <trip id="truck117" type="truck_truck" depart="136.08" departLane="best" from="142172390#4" to="25279173#1"/>
    <trip id="truck118" type="truck_truck" depart="137.24" departLane="best" from="23777296#1" to="826619491#1"/>
    <trip id="truck119" type="truck_truck" depart="138.40" departLane="best" from="-36001956" to="-323998782#3"/>
    <trip id="truck120" type="truck_truck" depart="139.57" departLane="best" from="494837113" to="-152615776"/>
    <trip id="truck122" type="truck_truck" depart="141.89" departLane="best" from="1137320422#0" to="-360569246#2"/>
    <trip id="truck123" type="truck_truck" depart="143.05" departLane="best" from="-184405663#2" to="21893728#1"/>
    <trip id="truck124" type="truck_truck" depart="144.22" departLane="best" from="989434778#0" to="-9813525#0"/>
    <trip id="truck125" type="truck_truck" depart="145.38" departLane="best" from="-184405664#2" to="-542922267#0"/>
    <trip id="truck126" type="truck_truck" depart="146.54" departLane="best" from="-57690817" to="821633273"/>
    <trip id="truck127" type="truck_truck" depart="147.71" departLane="best" from="57690817" to="57403752#1"/>
    <trip id="truck128" type="truck_truck" depart="148.87" departLane="best" from="-1245386802" to="-315139187"/>
    <trip id="truck129" type="truck_truck" depart="150.03" departLane="best" from="518329918#3" to="315055073#1"/>
    <trip id="truck130" type="truck_truck" depart="151.20" departLane="best" from="25442736" to="9810939"/>
    <trip id="truck131" type="truck_truck" depart="152.36" departLane="best" from="-26469305" to="-1132477879#1"/>
    <trip id="truck133" type="truck_truck" depart="154.68" departLane="best" from="277829991#2" to="841434546"/>
    <trip id="truck134" type="truck_truck" depart="155.85" departLane="best" from="252494711#0" to="-25313885#0"/>
    <trip id="truck135" type="truck_truck" depart="157.01" departLane="best" from="-23989910" to="24675140#0"/>
    <trip id="truck136" type="truck_truck" depart="158.17" departLane="best" from="-734884330#0" to="25696810#3"/>
    <trip id="truck137" type="truck_truck" depart="159.34" departLane="best" from="322822557#7" to="494837113"/>
    <trip id="truck138" type="truck_truck" depart="160.50" departLane="best" from="25699880#4" to="1036540163#1"/>
    <trip id="truck139" type="truck_truck" depart="161.66" departLane="best" from="21893273#3" to="711505222#0"/>
    <trip id="truck141" type="truck_truck" depart="163.99" departLane="best" from="152833098#6" to="246147757"/>
    <trip id="truck142" type="truck_truck" depart="165.15" departLane="best" from="258532506#2" to="10223920"/>
    <trip id="truck143" type="truck_truck" depart="166.32" departLane="best" from="-333440227#0" to="246147759"/>
    <trip id="truck144" type="truck_truck" depart="167.48" departLane="best" from="155205742#2" to="11406499#0"/>
    <trip id="truck145" type="truck_truck" depart="168.64" departLane="best" from="-188255439#0" to="57716764#0"/>
    <trip id="truck146" type="truck_truck" depart="169.80" departLane="best" from="707985822" to="24314355#0"/>
    <trip id="truck147" type="truck_truck" depart="170.97" departLane="best" from="523077726" to="555567146"/>
    <trip id="truck148" type="truck_truck" depart="172.13" departLane="best" from="1106761378#2" to="672658180#0"/>
    <trip id="truck149" type="truck_truck" depart="173.29" departLane="best" from="409992194#4" to="553398840"/>
    <trip id="truck150" type="truck_truck" depart="174.46" departLane="best" from="680673668" to="-523077726"/>
    <trip id="truck151" type="truck_truck" depart="175.62" departLane="best" from="-548542396" to="-24314202#1"/>
    <trip id="truck152" type="truck_truck" depart="176.78" departLane="best" from="299979678#9" to="57717637#1"/>
    <trip id="truck153" type="truck_truck" depart="177.95" departLane="best" from="-128169641#3" to="259204129"/>
    <trip id="truck154" type="truck_truck" depart="179.11" departLane="best" from="262231172" to="814195342#0"/>
    <trip id="truck155" type="truck_truck" depart="180.27" departLane="best" from="-553653982#0" to="963339159#3"/>
    <trip id="truck156" type="truck_truck" depart="181.43" departLane="best" from="453993138" to="57701745"/>
    <trip id="truck157" type="truck_truck" depart="182.60" departLane="best" departSpeed="max" from="-116703651#3" to="332239301"/>
    <trip id="truck158" type="truck_truck" depart="183.76" departLane="best" from="1160035281#1" to="815635147"/>
    <trip id="truck159" type="truck_truck" depart="184.92" departLane="best" from="453993138" to="1055417659"/>
    <trip id="truck160" type="truck_truck" depart="186.09" departLane="best" from="385715075#0" to="24675669#2"/>
    <trip id="truck161" type="truck_truck" depart="187.25" departLane="best" from="-555576772" to="553381709"/>
    <trip id="truck162" type="truck_truck" depart="188.41" departLane="best" from="-405263890#5" to="46848863#3"/>
    <trip id="truck163" type="truck_truck" depart="189.58" departLane="best" from="409992194#0" to="-555576782#2"/>
    <trip id="truck164" type="truck_truck" depart="190.74" departLane="best" from="226736450" to="553653978"/>
    <trip id="truck165" type="truck_truck" depart="191.90" departLane="best" from="9614409" to="-1132477868"/>
    <trip id="truck166" type="truck_truck" depart="193.07" departLane="best" from="262026863#1" to="152837280"/>
    <trip id="truck167" type="truck_truck" depart="194.23" departLane="best" from="9797388#0" to="24268916"/>
    <trip id="truck168" type="truck_truck" depart="195.39" departLane="best" from="-844640771" to="-25313885#0"/>
    <trip id="truck169" type="truck_truck" depart="196.55" departLane="best" from="9615841" to="363070249#2"/>
    <trip id="truck170" type="truck_truck" depart="197.72" departLane="best" from="936795026#1" to="10370247#0"/>
    <trip id="truck171" type="truck_truck" depart="198.88" departLane="best" from="24000001" to="188278101#1"/>
    <trip id="truck172" type="truck_truck" depart="200.04" departLane="best" from="324495973#6" to="1173944646#0"/>
    <trip id="truck173" type="truck_truck" depart="201.21" departLane="best" from="25419256#1" to="23989694#1"/>
    <trip id="truck174" type="truck_truck" depart="202.37" departLane="best" from="127170550#1" to="25217062"/>
    <trip id="truck175" type="truck_truck" depart="203.53" departLane="best" from="-553653974" to="320192378#0"/>
    <trip id="truck176" type="truck_truck" depart="204.70" departLane="best" from="10223920" to="322937695#0"/>
    <trip id="truck177" type="truck_truck" depart="205.86" departLane="best" from="23989694#1" to="32426873#2"/>
    <trip id="truck178" type="truck_truck" depart="207.02" departLane="best" departSpeed="max" from="333529588#0" to="296910353"/>
    <trip id="truck179" type="truck_truck" depart="208.18" departLane="best" from="1230123861" to="-191913090"/>
    <trip id="truck180" type="truck_truck" depart="209.35" departLane="best" from="277829991#6" to="1220559833"/>
    <trip id="truck183" type="truck_truck" depart="212.84" departLane="best" from="128169608#2" to="1153259925"/>
    <trip id="truck184" type="truck_truck" depart="214.00" departLane="best" from="845319871" to="298774228#1"/>
    <trip id="truck185" type="truck_truck" depart="215.16" departLane="best" from="706777771#0" to="25699878#1"/>
    <trip id="truck187" type="truck_truck" depart="217.49" departLane="best" departSpeed="max" from="-1013694274#1" to="11406499#2"/>
    <trip id="truck188" type="truck_truck" depart="218.65" departLane="best" from="158188032#2" to="25265171"/>
    <trip id="truck189" type="truck_truck" depart="219.82" departLane="best" from="26515803#1" to="21896325#1"/>
    <trip id="truck190" type="truck_truck" depart="220.98" departLane="best" from="16606350#3" to="548430811#0"/>
    <trip id="truck191" type="truck_truck" depart="222.14" departLane="best" from="194077588#2" to="680673668"/>
    <trip id="truck192" type="truck_truck" depart="223.30" departLane="best" from="409992194#4" to="-333529588#4"/>
    <trip id="truck193" type="truck_truck" depart="224.47" departLane="best" from="-21894706#7" to="23997010#0"/>
    <trip id="truck194" type="truck_truck" depart="225.63" departLane="best" from="25699878#2" to="1231931447"/>
    <trip id="truck196" type="truck_truck" depart="227.96" departLane="best" from="293201869#0" to="-555522869"/>
    <trip id="truck197" type="truck_truck" depart="229.12" departLane="best" from="-333440227#1" to="120459427#1"/>
    <trip id="truck198" type="truck_truck" depart="230.28" departLane="best" from="-518329918#2" to="226764678#0"/>
    <trip id="truck199" type="truck_truck" depart="231.45" departLane="best" from="55055033#2" to="201565322#3"/>
    <trip id="truck200" type="truck_truck" depart="232.61" departLane="best" from="129726574#3" to="262231190#3"/>
    <trip id="truck201" type="truck_truck" depart="233.77" departLane="best" departSpeed="max" from="-32924180" to="312567854#0"/>
    <trip id="truck202" type="truck_truck" depart="234.93" departLane="best" from="21894928#2" to="-84565136#1"/>
    <trip id="truck203" type="truck_truck" depart="236.10" departLane="best" from="26734651#1" to="-1117318722"/>
    <trip id="truck204" type="truck_truck" depart="237.26" departLane="best" departSpeed="max" from="346293388" to="37390247"/>
    <trip id="truck205" type="truck_truck" depart="238.42" departLane="best" departSpeed="max" from="-23989713#1" to="184228328#2"/>
    <trip id="truck206" type="truck_truck" depart="239.59" departLane="best" from="-23605354#0" to="-152833107#1"/>
    <trip id="truck207" type="truck_truck" depart="240.75" departLane="best" from="-548517967#0" to="548583827#0"/>
    <trip id="truck208" type="truck_truck" depart="241.91" departLane="best" from="184405663#0" to="424983836#3"/>
    <trip id="truck209" type="truck_truck" depart="243.08" departLane="best" from="-288104513#0" to="9811081#0"/>
    <trip id="truck210" type="truck_truck" depart="244.24" departLane="best" from="-25217272#2" to="8901631#0"/>
    <trip id="truck211" type="truck_truck" depart="245.40" departLane="best" from="63682666#0" to="25698850#4"/>
    <trip id="truck212" type="truck_truck" depart="246.57" departLane="best" from="322937688" to="23897495"/>
    <trip id="truck213" type="truck_truck" depart="247.73" departLane="best" from="5147797#2" to="24333262#4"/>
    <trip id="truck214" type="truck_truck" depart="248.89" departLane="best" from="663312327" to="339516603#3"/>
    <trip id="truck216" type="truck_truck" depart="251.22" departLane="best" from="-54209877#0" to="26469305"/>
    <trip id="truck217" type="truck_truck" depart="252.38" departLane="best" from="366124406#0" to="24036229"/>
    <trip id="truck218" type="truck_truck" depart="253.54" departLane="best" from="25698843#1" to="110558597#1"/>
    <trip id="truck219" type="truck_truck" depart="254.71" departLane="best" from="-201565319#2" to="11405987#1"/>
    <trip id="truck220" type="truck_truck" depart="255.87" departLane="best" from="711505222#0" to="120459427#1"/>
    <trip id="truck221" type="truck_truck" depart="257.03" departLane="best" from="23996715#1" to="263646495#0"/>
    <trip id="truck222" type="truck_truck" depart="258.20" departLane="best" from="448951684#1" to="310830440"/>
    <trip id="truck223" type="truck_truck" depart="259.36" departLane="best" from="8049730#0" to="-184079881#1"/>
    <trip id="truck224" type="truck_truck" depart="260.52" departLane="best" from="128169649" to="24304952"/>
    <trip id="truck225" type="truck_truck" depart="261.68" departLane="best" from="131977727#0" to="-5147797#0"/>
    <trip id="truck226" type="truck_truck" depart="262.85" departLane="best" from="148347938#1" to="707985821#1"/>
    <trip id="truck227" type="truck_truck" depart="264.01" departLane="best" from="25076992#6" to="312567850#0"/>
    <trip id="truck228" type="truck_truck" depart="265.17" departLane="best" from="553377531" to="367967151#7"/>
    <trip id="truck230" type="truck_truck" depart="267.50" departLane="best" from="120460377#0" to="36276075"/>
    <trip id="truck231" type="truck_truck" depart="268.66" departLane="best" from="553360185" to="895212011"/>
    <trip id="truck232" type="truck_truck" depart="269.83" departLane="best" from="140781226#1" to="-354943943#1"/>
    <trip id="truck234" type="truck_truck" depart="272.15" departLane="best" from="-38811595#2" to="-553642637#0"/>
    <trip id="truck235" type="truck_truck" depart="273.32" departLane="best" from="165691549" to="-124185220#1"/>
    <trip id="truck236" type="truck_truck" depart="274.48" departLane="best" from="1164668790#1" to="299665536#1"/>
    <trip id="truck237" type="truck_truck" depart="275.64" departLane="best" from="128169630#5" to="-330258925"/>
    <trip id="truck238" type="truck_truck" depart="276.80" departLane="best" from="189829272" to="25698853#2"/>
    <trip id="truck239" type="truck_truck" depart="277.97" departLane="best" from="25696810#5" to="-1217335595"/>
    <trip id="truck240" type="truck_truck" depart="279.13" departLane="best" from="-128169400#1" to="25076992#0"/>
    <trip id="truck241" type="truck_truck" depart="280.29" departLane="best" from="1197831675#2" to="269078757#1"/>
    <trip id="truck242" type="truck_truck" depart="281.46" departLane="best" from="-25329042" to="21894828#2"/>
    <trip id="truck243" type="truck_truck" depart="282.62" departLane="best" from="-128169641#5" to="128169650#4"/>
    <trip id="truck244" type="truck_truck" depart="283.78" departLane="best" from="367665284" to="1212349294#4"/>
    <trip id="truck245" type="truck_truck" depart="284.95" departLane="best" from="363312385#0" to="128169650#4"/>
    <trip id="truck246" type="truck_truck" depart="286.11" departLane="best" from="350890639" to="-517926116#1"/>
    <trip id="truck247" type="truck_truck" depart="287.27" departLane="best" from="553369829" to="-21895936#0"/>
    <trip id="truck248" type="truck_truck" depart="288.43" departLane="best" from="-1164668780" to="24269291#1"/>
    <trip id="truck250" type="truck_truck" depart="290.76" departLane="best" from="262551662#2" to="381595819"/>
    <trip id="truck251" type="truck_truck" depart="291.92" departLane="best" from="-263646495#0" to="36276075"/>
    <trip id="truck252" type="truck_truck" depart="293.09" departLane="best" from="875610382#1" to="262231177#1"/>
    <trip id="truck253" type="truck_truck" depart="294.25" departLane="best" from="-116691576#3" to="30596104"/>
    <trip id="truck254" type="truck_truck" depart="295.41" departLane="best" departSpeed="max" from="-24675591#9" to="-296896079"/>