<?xml version="1.0" encoding="UTF-8"?>

<!-- generated on 2024-04-23 19:44:08.615783 by osmWebWizard.py v1_19_0+0000-baa66a0f364
<configuration>
    <net-file value="F:\SUMO\OptimalEmission-SUMO-ReinforcementLearning\2024-04-23-19-43-03\osm.net.xml.gz"/>
    <output-trip-file value="F:\SUMO\OptimalEmission-SUMO-ReinforcementLearning\2024-04-23-19-43-03\osm.passenger.trips.xml"/>
    <route-file value="F:\SUMO\OptimalEmission-SUMO-ReinforcementLearning\2024-04-23-19-43-03\osm.passenger.rou.xml"/>
    <prefix value="veh"/>
    <trip-attributes value="departLane=&quot;best&quot;"/>
    <fringe-start-attributes value="departSpeed=&quot;max&quot;"/>
    <vehicle-class value="passenger"/>
    <lanes value="True"/>
    <fringe-factor value="5"/>
    <allow-fringe.min-length value="1000.0"/>
    <via-edge-types value="highway.motorway,highway.motorway_link,highway.trunk_link,highway.primary_link,highway.secondary_link,highway.tertiary_link"/>
    <min-distance value="300.0"/>
    <min-distance.fringe value="10.0"/>
    <remove-loops value="True"/>
    <validate value="True"/>
    <insertion-density value="12.0"/>
</configuration>
-->

<!-- generated on 2024-04-23 19:44:04 by Eclipse SUMO duarouter Version 1.19.0
<configuration xmlns:xsi="http://www.w3.org/2001/XMLSchema-instance" xsi:noNamespaceSchemaLocation="http://sumo.dlr.de/xsd/duarouterConfiguration.xsd">

    <input>
        <net-file value="F:\SUMO\OptimalEmission-SUMO-ReinforcementLearning\2024-04-23-19-43-03\osm.net.xml.gz"/>
        <route-files value="F:\SUMO\OptimalEmission-SUMO-ReinforcementLearning\2024-04-23-19-43-03\osm.passenger.trips.xml"/>
    </input>

    <output>
        <output-file value="F:\SUMO\OptimalEmission-SUMO-ReinforcementLearning\2024-04-23-19-43-03\osm.passenger.trips.xml.tmp"/>
        <alternatives-output value="NUL"/>
        <write-trips value="true"/>
    </output>

    <processing>
        <remove-loops value="true"/>
    </processing>

    <time>
        <begin value="0.0"/>
        <end value="3600.0"/>
    </time>

    <report>
        <no-warnings value="true"/>
        <ignore-errors value="true"/>
        <no-step-log value="true"/>
    </report>

</configuration>
-->

<routes xmlns:xsi="http://www.w3.org/2001/XMLSchema-instance" xsi:noNamespaceSchemaLocation="http://sumo.dlr.de/xsd/routes_file.xsd">
    <vType id="veh_passenger" vClass="passenger"/>
    <trip id="veh0" type="veh_passenger" depart="0.00" departLane="best" from="27160254" to="1235622688"/>
    <trip id="veh1" type="veh_passenger" depart="0.78" departLane="best" from="-914641146#0" to="-574614584"/>
    <trip id="veh2" type="veh_passenger" depart="1.55" departLane="best" from="345747426" to="312665678#0"/>
    <trip id="veh3" type="veh_passenger" depart="2.33" departLane="best" departSpeed="max" from="63682615" to="225427372#3"/>
    <trip id="veh4" type="veh_passenger" depart="3.10" departLane="best" departSpeed="max" from="159809191#0" to="-1263871625#0"/>
    <trip id="veh5" type="veh_passenger" depart="3.88" departLane="best" from="-464432625#1" to="24006172"/>
    <trip id="veh6" type="veh_passenger" depart="4.65" departLane="best" from="-1217335595" to="518329914#1"/>
    <trip id="veh7" type="veh_passenger" depart="5.43" departLane="best" from="293201869#0" to="25076992#3"/>
    <trip id="veh8" type="veh_passenger" depart="6.20" departLane="best" from="-466170115" to="259048743#2"/>
    <trip id="veh9" type="veh_passenger" depart="6.98" departLane="best" from="496369652#0" to="-1132477872"/>
    <trip id="veh10" type="veh_passenger" depart="7.75" departLane="best" from="485429080#0" to="323998786#1"/>
    <trip id="veh11" type="veh_passenger" depart="8.53" departLane="best" from="1207112120" to="-323998784#2"/>
    <trip id="veh12" type="veh_passenger" depart="9.30" departLane="best" from="866491470" to="127059999"/>
    <trip id="veh13" type="veh_passenger" depart="10.08" departLane="best" from="226763072#1" to="23989685"/>
    <trip id="veh15" type="veh_passenger" depart="11.63" departLane="best" from="485679283#0" to="351730536#0"/>
    <trip id="veh16" type="veh_passenger" depart="12.41" departLane="best" from="24118556#3" to="95352808#1"/>
    <trip id="veh18" type="veh_passenger" depart="13.96" departLane="best" from="543852232" to="26515803#2"/>
    <trip id="veh19" type="veh_passenger" depart="14.73" departLane="best" from="553653977#0" to="25696808"/>
    <trip id="veh20" type="veh_passenger" depart="15.51" departLane="best" from="323998779#3" to="131450095#1"/>
    <trip id="veh21" type="veh_passenger" depart="16.28" departLane="best" from="-510434472#2" to="1159410989"/>
    <trip id="veh22" type="veh_passenger" depart="17.06" departLane="best" from="188255439#0" to="-75502768#0"/>
    <trip id="veh23" type="veh_passenger" depart="17.83" departLane="best" from="323998798" to="11406499#2"/>
    <trip id="veh24" type="veh_passenger" depart="18.61" departLane="best" from="269078757#2" to="-128169614"/>
    <trip id="veh25" type="veh_passenger" depart="19.38" departLane="best" from="-1271247647#0" to="-553388946#1"/>
    <trip id="veh26" type="veh_passenger" depart="20.16" departLane="best" departSpeed="max" from="-815635147" to="814195337#3"/>
    <trip id="veh27" type="veh_passenger" depart="20.93" departLane="best" from="292368607#0" to="262231192#3"/>
    <trip id="veh28" type="veh_passenger" depart="21.71" departLane="best" departSpeed="max" from="-306548705#1" to="-350890639"/>
    <trip id="veh29" type="veh_passenger" depart="22.49" departLane="best" departSpeed="max" from="-292332094" to="135315473#1"/>
    <trip id="veh30" type="veh_passenger" depart="23.26" departLane="best" from="9810860#0" to="293201859"/>
    <trip id="veh31" type="veh_passenger" depart="24.04" departLane="best" from="270200286#0" to="318636370"/>
    <trip id="veh32" type="veh_passenger" depart="24.81" departLane="best" from="553366910#1" to="127554078#1"/>
    <trip id="veh33" type="veh_passenger" depart="25.59" departLane="best" from="517926116#0" to="1271262071#0"/>
    <trip id="veh34" type="veh_passenger" depart="26.36" departLane="best" from="28105435" to="1112710472"/>
    <trip id="veh35" type="veh_passenger" depart="27.14" departLane="best" from="-405263890#0" to="835330906#1"/>
    <trip id="veh36" type="veh_passenger" depart="27.91" departLane="best" from="295484306#0" to="-159809191#3"/>
    <trip id="veh37" type="veh_passenger" depart="28.69" departLane="best" from="749034133#1" to="21895482"/>
    <trip id="veh38" type="veh_passenger" depart="29.46" departLane="best" from="-734884332" to="95352808#0"/>
    <trip id="veh39" type="veh_passenger" depart="30.24" departLane="best" from="24676330#1" to="10895072#1"/>
    <trip id="veh40" type="veh_passenger" depart="31.01" departLane="best" from="16607581#0" to="-656740223"/>
    <trip id="veh41" type="veh_passenger" depart="31.79" departLane="best" from="-128169721#1" to="-555526201"/>
    <trip id="veh42" type="veh_passenger" depart="32.57" departLane="best" from="9813735#1" to="24037549"/>
    <trip id="veh43" type="veh_passenger" depart="33.34" departLane="best" from="-21896445#0" to="136790107"/>
    <trip id="veh44" type="veh_passenger" depart="34.12" departLane="best" from="-24037542#0" to="277829991#4"/>
    <trip id="veh45" type="veh_passenger" depart="34.89" departLane="best" from="4380563#1" to="184405663#3"/>
    <trip id="veh46" type="veh_passenger" depart="35.67" departLane="best" from="-165691548" to="140781226#1"/>
    <trip id="veh47" type="veh_passenger" depart="36.44" departLane="best" from="9813505#1" to="24320636"/>
    <trip id="veh48" type="veh_passenger" depart="37.22" departLane="best" from="-936795026#0" to="-553653979#2"/>
    <trip id="veh49" type="veh_passenger" depart="37.99" departLane="best" from="-11406499#1" to="536471632"/>
    <trip id="veh50" type="veh_passenger" depart="38.77" departLane="best" from="310661607#0" to="-24675205#1"/>
    <trip id="veh51" type="veh_passenger" depart="39.54" departLane="best" departSpeed="max" from="-815635147" to="293201869#2"/>
    <trip id="veh52" type="veh_passenger" depart="40.32" departLane="best" from="-24052353#2" to="189826958#1"/>
    <trip id="veh53" type="veh_passenger" depart="41.09" departLane="best" from="18662232#0" to="892576022#2"/>
    <trip id="veh54" type="veh_passenger" depart="41.87" departLane="best" from="56066397" to="10895203#1"/>
    <trip id="veh55" type="veh_passenger" depart="42.64" departLane="best" from="226764679#0" to="-378102673#2"/>
    <trip id="veh56" type="veh_passenger" depart="43.42" departLane="best" from="734884332" to="262231226#0"/>
    <trip id="veh57" type="veh_passenger" depart="44.20" departLane="best" from="1122322112" to="293201859"/>
    <trip id="veh58" type="veh_passenger" depart="44.97" departLane="best" from="257686309" to="322937691#3"/>
    <trip id="veh59" type="veh_passenger" depart="45.75" departLane="best" from="-374479196#1" to="24676330#0"/>
    <trip id="veh60" type="veh_passenger" depart="46.52" departLane="best" from="39376052#0" to="243417076"/>
    <trip id="veh61" type="veh_passenger" depart="47.30" departLane="best" departSpeed="max" from="-1013694274#1" to="1242333292"/>
    <trip id="veh62" type="veh_passenger" depart="48.07" departLane="best" departSpeed="max" from="-116697533#1" to="-810564474"/>
    <trip id="veh63" type="veh_passenger" depart="48.85" departLane="best" departSpeed="max" from="57403090#0" to="548517967#1"/>
    <trip id="veh64" type="veh_passenger" depart="49.62" departLane="best" from="11406070#1" to="-165691553"/>
    <trip id="veh65" type="veh_passenger" depart="50.40" departLane="best" departSpeed="max" from="57403090#0" to="841734433#0"/>
    <trip id="veh66" type="veh_passenger" depart="51.17" departLane="best" from="-212846109" to="23786237#2"/>
    <trip id="veh67" type="veh_passenger" depart="51.95" departLane="best" from="-165691573#1" to="379541120#0"/>
    <trip id="veh68" type="veh_passenger" depart="52.72" departLane="best" from="376337350#0" to="262231170"/>
    <trip id="veh69" type="veh_passenger" depart="53.50" departLane="best" from="200166775#2" to="38169384#0"/>
    <trip id="veh70" type="veh_passenger" depart="54.28" departLane="best" from="75502768#1" to="555577126#0"/>
    <trip id="veh71" type="veh_passenger" depart="55.05" departLane="best" departSpeed="max" from="159809197" to="-553653976#0"/>
    <trip id="veh72" type="veh_passenger" depart="55.83" departLane="best" from="-24210220#1" to="351730536#0"/>
    <trip id="veh73" type="veh_passenger" depart="56.60" departLane="best" from="-366125852#3" to="1211920253#1"/>
    <trip id="veh74" type="veh_passenger" depart="57.38" departLane="best" from="-9813296#1" to="296896091"/>
    <trip id="veh75" type="veh_passenger" depart="58.15" departLane="best" from="16607310#0" to="242567249"/>
    <trip id="veh76" type="veh_passenger" depart="58.93" departLane="best" from="-24675205#2" to="57690816"/>
    <trip id="veh77" type="veh_passenger" depart="59.70" departLane="best" from="1204268059" to="155220679#0"/>
    <trip id="veh78" type="veh_passenger" depart="60.48" departLane="best" from="518329914#5" to="-555567150"/>
    <trip id="veh79" type="veh_passenger" depart="61.25" departLane="best" from="165691577#0" to="288069909"/>
    <trip id="veh80" type="veh_passenger" depart="62.03" departLane="best" from="517926116#0" to="697835468#0"/>
    <trip id="veh81" type="veh_passenger" depart="62.80" departLane="best" from="553650530#3" to="184405664#1"/>
    <trip id="veh82" type="veh_passenger" depart="63.58" departLane="best" from="553360185" to="-306730550#0"/>
    <trip id="veh83" type="veh_passenger" depart="64.36" departLane="best" departSpeed="max" from="-420094403" to="262231234#0"/>
    <trip id="veh84" type="veh_passenger" depart="65.13" departLane="best" from="813494822#0" to="25442735#1"/>
    <trip id="veh85" type="veh_passenger" depart="65.91" departLane="best" departSpeed="max" from="195071786#0" to="420094403"/>
    <trip id="veh86" type="veh_passenger" depart="66.68" departLane="best" from="485679286#0" to="-466170113#0"/>
    <trip id="veh87" type="veh_passenger" depart="67.46" departLane="best" from="22790430#1" to="188278096#5"/>
    <trip id="veh88" type="veh_passenger" depart="68.23" departLane="best" from="165340370" to="226763076#2"/>
    <trip id="veh90" type="veh_passenger" depart="69.78" departLane="best" from="9796768" to="-24052445"/>
    <trip id="veh91" type="veh_passenger" depart="70.56" departLane="best" from="129383496#5" to="127060041#1"/>
    <trip id="veh92" type="veh_passenger" depart="71.33" departLane="best" from="-553653977#0" to="-9812285#0"/>
    <trip id="veh93" type="veh_passenger" depart="72.11" departLane="best" from="-333440225#1" to="21885470#2"/>
    <trip id="veh94" type="veh_passenger" depart="72.88" departLane="best" departSpeed="max" from="159809191#0" to="11406499#6"/>
    <trip id="veh95" type="veh_passenger" depart="73.66" departLane="best" from="-555526197" to="78414958#1"/>
    <trip id="veh96" type="veh_passenger" depart="74.43" departLane="best" from="171382785" to="553653982#0"/>
    <trip id="veh97" type="veh_passenger" depart="75.21" departLane="best" from="-24319939" to="152837280"/>
    <trip id="veh99" type="veh_passenger" depart="76.76" departLane="best" departSpeed="max" from="914641145" to="79042980#0"/>
    <trip id="veh100" type="veh_passenger" depart="77.54" departLane="best" from="553378381" to="341528504"/>
    <trip id="veh101" type="veh_passenger" depart="78.31" departLane="best" from="21893273#3" to="-553653981#1"/>
    <trip id="veh102" type="veh_passenger" depart="79.09" departLane="best" from="129381358" to="-165691556"/>
    <trip id="veh103" type="veh_passenger" depart="79.86" departLane="best" from="-128169304#1" to="9797316#2"/>
    <trip id="veh104" type="veh_passenger" depart="80.64" departLane="best" from="-757918961" to="310155257#0"/>
    <trip id="veh105" type="veh_passenger" depart="81.41" departLane="best" from="-188255439#1" to="184405665#1"/>
    <trip id="veh106" type="veh_passenger" depart="82.19" departLane="best" from="866491470" to="9813296#3"/>
    <trip id="veh107" type="veh_passenger" depart="82.96" departLane="best" from="246147759" to="331237096"/>
    <trip id="veh108" type="veh_passenger" depart="83.74" departLane="best" departSpeed="max" from="-26515803#2" to="116691576#4"/>
    <trip id="veh109" type="veh_passenger" depart="84.51" departLane="best" from="911292994" to="25696818"/>
    <trip id="veh110" type="veh_passenger" depart="85.29" departLane="best" from="24262858#0" to="326818327"/>
    <trip id="veh111" type="veh_passenger" depart="86.07" departLane="best" departSpeed="max" from="15011489#2" to="25698852#2"/>
    <trip id="veh112" type="veh_passenger" depart="86.84" departLane="best" from="226765468#3" to="553401321#0"/>
    <trip id="veh113" type="veh_passenger" depart="87.62" departLane="best" departSpeed="max" from="-26972172" to="892576022#3"/>
    <trip id="veh114" type="veh_passenger" depart="88.39" departLane="best" from="188255439#1" to="409992195#1"/>
    <trip id="veh115" type="veh_passenger" depart="89.17" departLane="best" departSpeed="max" from="25452499#0" to="312567854#1"/>
    <trip id="veh116" type="veh_passenger" depart="89.94" departLane="best" from="55055055#0" to="-25696813"/>
    <trip id="veh118" type="veh_passenger" depart="91.49" departLane="best" from="25444187#2" to="26734651#0"/>
    <trip id="veh119" type="veh_passenger" depart="92.27" departLane="best" from="158188032#1" to="-25698850#2"/>
    <trip id="veh120" type="veh_passenger" depart="93.04" departLane="best" from="23897394#1" to="813689945#2"/>
    <trip id="veh121" type="veh_passenger" depart="93.82" departLane="best" from="-37126200#0" to="-330660906"/>
    <trip id="veh122" type="veh_passenger" depart="94.59" departLane="best" from="553362091" to="262231168"/>
    <trip id="veh123" type="veh_passenger" depart="95.37" departLane="best" from="300401975" to="116703721#0"/>
    <trip id="veh124" type="veh_passenger" depart="96.14" departLane="best" from="1156348396#0" to="367967151#7"/>
    <trip id="veh125" type="veh_passenger" depart="96.92" departLane="best" from="165691581#0" to="21894908#1"/>
    <trip id="veh126" type="veh_passenger" depart="97.70" departLane="best" from="-984386160" to="-9813505#1"/>
    <trip id="veh127" type="veh_passenger" depart="98.47" departLane="best" from="-169842663#1" to="-553653979#1"/>
    <trip id="veh128" type="veh_passenger" depart="99.25" departLane="best" from="-757918961" to="813689945#0"/>
    <trip id="veh129" type="veh_passenger" depart="100.02" departLane="best" from="57403756#1" to="574782505"/>
    <trip id="veh130" type="veh_passenger" depart="100.80" departLane="best" from="127060133" to="-323998820#1"/>
    <trip id="veh131" type="veh_passenger" depart="101.57" departLane="best" departSpeed="max" from="548552842" to="-324496066#0"/>
    <trip id="veh132" type="veh_passenger" depart="102.35" departLane="best" from="260321636#1" to="9798439#2"/>
    <trip id="veh133" type="veh_passenger" depart="103.12" departLane="best" from="294499587" to="-1132477879#1"/>
    <trip id="veh134" type="veh_passenger" depart="103.90" departLane="best" from="516818990" to="116703651#3"/>
    <trip id="veh135" type="veh_passenger" depart="104.67" departLane="best" from="298215629#0" to="816162388"/>
    <trip id="veh136" type="veh_passenger" depart="105.45" departLane="best" departSpeed="max" from="-23995915" to="252121041#3"/>
    <trip id="veh137" type="veh_passenger" depart="106.22" departLane="best" from="849029111" to="262231191#1"/>
    <trip id="veh138" type="veh_passenger" depart="107.00" departLane="best" from="327430643" to="553378382"/>
    <trip id="veh139" type="veh_passenger" depart="107.78" departLane="best" from="-26642103#0" to="109379790#2"/>
    <trip id="veh140" type="veh_passenger" depart="108.55" departLane="best" from="21894774#0" to="692427362"/>
    <trip id="veh141" type="veh_passenger" depart="109.33" departLane="best" from="553375159#1" to="-234250238#2"/>
    <trip id="veh142" type="veh_passenger" depart="110.10" departLane="best" from="165340370" to="11405915"/>
    <trip id="veh143" type="veh_passenger" depart="110.88" departLane="best" departSpeed="max" from="-1079478063#1" to="383898010"/>
    <trip id="veh144" type="veh_passenger" depart="111.65" departLane="best" from="26972214#0" to="1085625386#0"/>
    <trip id="veh145" type="veh_passenger" depart="112.43" departLane="best" from="35683127" to="25094881"/>
    <trip id="veh146" type="veh_passenger" depart="113.20" departLane="best" from="165691554" to="-11405893#1"/>
    <trip id="veh147" type="veh_passenger" depart="113.98" departLane="best" from="176039470#1" to="59716277"/>
    <trip id="veh148" type="veh_passenger" depart="114.75" departLane="best" from="68741614#0" to="25077186#0"/>
    <trip id="veh149" type="veh_passenger" depart="115.53" departLane="best" departSpeed="max" from="548552842" to="25698847#0"/>
    <trip id="veh150" type="veh_passenger" depart="116.30" departLane="best" from="-262231176" to="-262231164#1"/>
    <trip id="veh151" type="veh_passenger" depart="117.08" departLane="best" from="-11406499#3" to="662903606"/>
    <trip id="veh152" type="veh_passenger" depart="117.85" departLane="best" departSpeed="max" from="4473078" to="553653979#2"/>
    <trip id="veh153" type="veh_passenger" depart="118.63" departLane="best" from="647051363#0" to="-553398840"/>
    <trip id="veh154" type="veh_passenger" depart="119.41" departLane="best" from="-555526194#1" to="24319939"/>
    <trip id="veh155" type="veh_passenger" depart="120.18" departLane="best" from="39386628#2" to="59716289#2"/>
    <trip id="veh156" type="veh_passenger" depart="120.96" departLane="best" from="135198600#0" to="269078757#2"/>
    <trip id="veh157" type="veh_passenger" depart="121.73" departLane="best" departSpeed="max" from="-26515803#2" to="813494816"/>
    <trip id="veh158" type="veh_passenger" depart="122.51" departLane="best" from="554969175#0" to="9615338#2"/>
    <trip id="veh159" type="veh_passenger" depart="123.28" departLane="best" from="-501209223#1" to="57716764#0"/>
    <trip id="veh160" type="veh_passenger" depart="124.06" departLane="best" from="-1205847092" to="-361469352#2"/>
    <trip id="veh161" type="veh_passenger" depart="124.83" departLane="best" from="1168674533" to="813494818#0"/>
    <trip id="veh162" type="veh_passenger" depart="125.61" departLane="best" from="466382850" to="554979046#1"/>
    <trip id="veh163" type="veh_passenger" depart="126.38" departLane="best" from="-501209223#1" to="1106761378#1"/>
    <trip id="veh164" type="veh_passenger" depart="127.16" departLane="best" from="413351507" to="-25047274#0"/>
    <trip id="veh165" type="veh_passenger" depart="127.93" departLane="best" from="555577125#0" to="553653974"/>
    <trip id="veh166" type="veh_passenger" depart="128.71" departLane="best" departSpeed="max" from="-46874661#2" to="-5147797#2"/>
    <trip id="veh167" type="veh_passenger" depart="129.49" departLane="best" from="188278096#4" to="1197831674#2"/>
    <trip id="veh168" type="veh_passenger" depart="130.26" departLane="best" from="442915706#1" to="-656740223"/>
    <trip id="veh169" type="veh_passenger" depart="131.04" departLane="best" from="1197831675#2" to="474220908#2"/>
    <trip id="veh170" type="veh_passenger" depart="131.81" departLane="best" from="-116703651#1" to="-554983614"/>
    <trip id="veh171" type="veh_passenger" depart="132.59" departLane="best" from="908087824" to="11406686#1"/>
    <trip id="veh172" type="veh_passenger" depart="133.36" departLane="best" from="279928755" to="-165691554"/>
    <trip id="veh173" type="veh_passenger" depart="134.14" departLane="best" from="9617515#1" to="24675159#5"/>
    <trip id="veh174" type="veh_passenger" depart="134.91" departLane="best" from="813689947#0" to="-25432727#0"/>
    <trip id="veh175" type="veh_passenger" depart="135.69" departLane="best" from="916471339#0" to="-378102673#0"/>
    <trip id="veh176" type="veh_passenger" depart="136.46" departLane="best" from="892576018#1" to="110558597#1"/>
    <trip id="veh177" type="veh_passenger" depart="137.24" departLane="best" departSpeed="max" from="-24006044#1" to="189826956#1"/>
    <trip id="veh178" type="veh_passenger" depart="138.01" departLane="best" from="-25699879#0" to="23989694#2"/>
    <trip id="veh179" type="veh_passenger" depart="138.79" departLane="best" from="128169506#0" to="25454205"/>
    <trip id="veh180" type="veh_passenger" depart="139.57" departLane="best" from="-57690816" to="327430643"/>
    <trip id="veh181" type="veh_passenger" depart="140.34" departLane="best" from="-1030950568" to="788526731"/>
    <trip id="veh182" type="veh_passenger" depart="141.12" departLane="best" from="24203473#0" to="-332226794#3"/>
    <trip id="veh183" type="veh_passenger" depart="141.89" departLane="best" from="35954973#0" to="30889907#1"/>
    <trip id="veh184" type="veh_passenger" depart="142.67" departLane="best" from="-1264971215" to="-184079881#1"/>
    <trip id="veh185" type="veh_passenger" depart="143.44" departLane="best" from="298774225" to="125067712"/>
    <trip id="veh188" type="veh_passenger" depart="145.77" departLane="best" from="11406686#1" to="-165691581#0"/>
    <trip id="veh189" type="veh_passenger" depart="146.54" departLane="best" from="129383496#4" to="1166228840#0"/>
    <trip id="veh190" type="veh_passenger" depart="147.32" departLane="best" departSpeed="max" from="-25217062" to="24203473#0"/>
    <trip id="veh191" type="veh_passenger" depart="148.09" departLane="best" from="814195337#0-AddedOnRampEdge" to="312862332#0"/>
    <trip id="veh192" type="veh_passenger" depart="148.87" departLane="best" from="676888947#1" to="26469304#8"/>
    <trip id="veh193" type="veh_passenger" depart="149.64" departLane="best" from="1132477873" to="25078634#1"/>
    <trip id="veh194" type="veh_passenger" depart="150.42" departLane="best" departSpeed="max" from="-1013694274#1" to="1157513707#0"/>
    <trip id="veh195" type="veh_passenger" depart="151.20" departLane="best" from="165691566#0" to="25698835#1"/>
    <trip id="veh196" type="veh_passenger" depart="151.97" departLane="best" from="294829018" to="224679204#0"/>
    <trip id="veh197" type="veh_passenger" depart="152.75" departLane="best" from="171382783#0" to="553653981#1"/>
    <trip id="veh198" type="veh_passenger" depart="153.52" departLane="best" from="195263388" to="680461919"/>
    <trip id="veh199" type="veh_passenger" depart="154.30" departLane="best" departSpeed="max" from="4473078" to="-360568380#1"/>
    <trip id="veh200" type="veh_passenger" depart="155.07" departLane="best" from="-204319254#0" to="24203473#0"/>
    <trip id="veh201" type="veh_passenger" depart="155.85" departLane="best" from="-26515802#1" to="1265918765"/>
    <trip id="veh202" type="veh_passenger" depart="156.62" departLane="best" from="518329914#6" to="367967151#2"/>
    <trip id="veh203" type="veh_passenger" depart="157.40" departLane="best" from="301007415#2" to="-57690816"/>
    <trip id="veh204" type="veh_passenger" depart="158.17" departLane="best" from="-363070249#5" to="262231155"/>
    <trip id="veh205" type="veh_passenger" depart="158.95" departLane="best" from="-553653982#0" to="22790431#1"/>
    <trip id="veh206" type="veh_passenger" depart="159.72" departLane="best" from="-553380508" to="221425811#0"/>
    <trip id="veh207" type="veh_passenger" depart="160.50" departLane="best" from="-152833100" to="282830443#2"/>
    <trip id="veh208" type="veh_passenger" depart="161.28" departLane="best" from="-354943937#1" to="323998779#3"/>
    <trip id="veh209" type="veh_passenger" depart="162.05" departLane="best" from="221248732#2" to="-914641145"/>
    <trip id="veh210" type="veh_passenger" depart="162.83" departLane="best" from="295484598#0" to="-1132477865"/>
    <trip id="veh211" type="veh_passenger" depart="163.60" departLane="best" from="366076512#6" to="38169398#1"/>
    <trip id="veh212" type="veh_passenger" depart="164.38" departLane="best" from="23989910" to="186566502#2"/>
    <trip id="veh213" type="veh_passenger" depart="165.15" departLane="best" from="315139187" to="8901631#1"/>
    <trip id="veh214" type="veh_passenger" depart="165.93" departLane="best" from="23786255#1" to="-152833100"/>
    <trip id="veh215" type="veh_passenger" depart="166.70" departLane="best" from="555526190" to="553381709"/>
    <trip id="veh216" type="veh_passenger" depart="167.48" departLane="best" departSpeed="max" from="188278093#0" to="46848863#3"/>
    <trip id="veh217" type="veh_passenger" depart="168.25" departLane="best" from="299715756#0" to="9798564#2"/>
    <trip id="veh218" type="veh_passenger" depart="169.03" departLane="best" from="25452499#2" to="84622533#0"/>
    <trip id="veh219" type="veh_passenger" depart="169.80" departLane="best" departSpeed="max" from="63682615" to="262551662#4"/>
    <trip id="veh220" type="veh_passenger" depart="170.58" departLane="best" from="327433726" to="24006044#1"/>
    <trip id="veh221" type="veh_passenger" depart="171.35" departLane="best" from="54533180" to="25078634#0"/>
    <trip id="veh222" type="veh_passenger" depart="172.13" departLane="best" from="639488552#0" to="366124401#0"/>
    <trip id="veh223" type="veh_passenger" depart="172.91" departLane="best" departSpeed="max" from="199249369" to="1055417668#1"/>
    <trip id="veh224" type="veh_passenger" depart="173.68" departLane="best" from="-555518590#0" to="293200307"/>
    <trip id="veh225" type="veh_passenger" depart="174.46" departLane="best" from="-374949023#1" to="24269099#1"/>
    <trip id="veh226" type="veh_passenger" depart="175.23" departLane="best" from="262231196" to="113628997"/>
    <trip id="veh228" type="veh_passenger" depart="176.78" departLane="best" from="84622526" to="1230123860"/>
    <trip id="veh229" type="veh_passenger" depart="177.56" departLane="best" from="24256096#2" to="27160254"/>
    <trip id="veh230" type="veh_passenger" depart="178.33" departLane="best" from="-525190380#1" to="322937694#2"/>
    <trip id="veh231" type="veh_passenger" depart="179.11" departLane="best" from="323998786#1" to="-165691580#0"/>
    <trip id="veh232" type="veh_passenger" depart="179.88" departLane="best" from="152834471" to="553360183"/>
    <trip id="veh233" type="veh_passenger" depart="180.66" departLane="best" departSpeed="max" from="158188033" to="691417330"/>
    <trip id="veh234" type="veh_passenger" depart="181.43" departLane="best" from="25313884#8" to="-323556861#1"/>
    <trip id="veh235" type="veh_passenger" depart="182.21" departLane="best" from="553404740#1" to="379541135"/>
    <trip id="veh236" type="veh_passenger" depart="182.99" departLane="best" from="296910353" to="-1132477868"/>
    <trip id="veh237" type="veh_passenger" depart="183.76" departLane="best" from="-936792548#0" to="37126217"/>
    <trip id="veh238" type="veh_passenger" depart="184.54" departLane="best" from="553398825#0" to="856284789"/>
    <trip id="veh239" type="veh_passenger" depart="185.31" departLane="best" from="1148976660#1" to="366124408#0"/>
    <trip id="veh240" type="veh_passenger" depart="186.09" departLane="best" from="24303221" to="262231189#4"/>
    <trip id="veh241" type="veh_passenger" depart="186.86" departLane="best" from="-165691580#0" to="-1263871624#0"/>
    <trip id="veh242" type="veh_passenger" depart="187.64" departLane="best" from="1197831674#2" to="314335689#0"/>
    <trip id="veh243" type="veh_passenger" depart="188.41" departLane="best" from="129726574#8" to="-335740588#0"/>
    <trip id="veh244" type="veh_passenger" depart="189.19" departLane="best" from="190584881#0" to="-262231167"/>
    <trip id="veh245" type="veh_passenger" depart="189.96" departLane="best" from="262231189#4" to="-125067680"/>
    <trip id="veh246" type="veh_passenger" depart="190.74" departLane="best" from="128169630#6" to="25360189#0"/>