<?xml version="1.0" encoding="UTF-8"?>

<!-- generated on 2024-04-23 20:24:37.296156 by osmWebWizard.py v1_19_0+0000-baa66a0f364
<configuration>
    <net-file value="F:\SUMO\OptimalEmission-SUMO-ReinforcementLearning\2024-04-23-20-24-12\osm.net.xml.gz"/>
    <output-trip-file value="F:\SUMO\OptimalEmission-SUMO-ReinforcementLearning\2024-04-23-20-24-12\osm.motorcycle.trips.xml"/>
    <route-file value="F:\SUMO\OptimalEmission-SUMO-ReinforcementLearning\2024-04-23-20-24-12\osm.motorcycle.rou.xml"/>
    <prefix value="motorcycle"/>
    <trip-attributes value="departLane=&quot;best&quot;"/>
    <fringe-start-attributes value="departSpeed=&quot;max&quot;"/>
    <vehicle-class value="motorcycle"/>
    <fringe-factor value="2"/>
    <vclass value="motorcycle"/>
    <via-edge-types value="highway.motorway,highway.motorway_link,highway.trunk_link,highway.primary_link,highway.secondary_link,highway.tertiary_link"/>
    <max-distance value="1200.0"/>
    <remove-loops value="True"/>
    <validate value="True"/>
    <insertion-density value="4.0"/>
</configuration>
-->

<!-- generated on 2024-04-23 20:24:37 by Eclipse SUMO duarouter Version 1.19.0
<configuration xmlns:xsi="http://www.w3.org/2001/XMLSchema-instance" xsi:noNamespaceSchemaLocation="http://sumo.dlr.de/xsd/duarouterConfiguration.xsd">

    <input>
        <net-file value="F:\SUMO\OptimalEmission-SUMO-ReinforcementLearning\2024-04-23-20-24-12\osm.net.xml.gz"/>
        <route-files value="F:\SUMO\OptimalEmission-SUMO-ReinforcementLearning\2024-04-23-20-24-12\osm.motorcycle.trips.xml"/>
    </input>

    <output>
        <output-file value="F:\SUMO\OptimalEmission-SUMO-ReinforcementLearning\2024-04-23-20-24-12\osm.motorcycle.trips.xml.tmp"/>
        <alternatives-output value="NUL"/>
        <write-trips value="true"/>
    </output>

    <processing>
        <remove-loops value="true"/>
    </processing>

    <time>
        <begin value="0.0"/>
        <end value="3600.0"/>
    </time>

    <report>
        <no-warnings value="true"/>
        <ignore-errors value="true"/>
        <no-step-log value="true"/>
    </report>

</configuration>
-->

<routes xmlns:xsi="http://www.w3.org/2001/XMLSchema-instance" xsi:noNamespaceSchemaLocation="http://sumo.dlr.de/xsd/routes_file.xsd">
    <vType id="motorcycle_motorcycle" vClass="motorcycle"/>
    <trip id="motorcycle0" type="motorcycle_motorcycle" depart="0.00" departLane="best" from="-33631707#4" to="5148790#3"/>
    <trip id="motorcycle1" type="motorcycle_motorcycle" depart="8.71" departLane="best" from="-5148790#2" to="-4964449#4"/>
    <trip id="motorcycle2" type="motorcycle_motorcycle" depart="17.42" departLane="best" from="1086178289#0" to="-123240445"/>
    <trip id="motorcycle3" type="motorcycle_motorcycle" depart="26.12" departLane="best" from="4444707#0" to="30681330"/>
    <trip id="motorcycle4" type="motorcycle_motorcycle" depart="34.83" departLane="best" from="5029383#3" to="-104422584#1"/>
    <trip id="motorcycle5" type="motorcycle_motorcycle" depart="43.54" departLane="best" from="5029380" to="-420803118#0"/>
    <trip id="motorcycle6" type="motorcycle_motorcycle" depart="52.25" departLane="best" from="8027254#3" to="369084443#0"/>
    <trip id="motorcycle7" type="motorcycle_motorcycle" depart="60.96" departLane="best" from="86124153#2" to="8086532#2"/>
    <trip id="motorcycle8" type="motorcycle_motorcycle" depart="69.67" departLane="best" from="5029381" to="4444709#0"/>
    <trip id="motorcycle9" type="motorcycle_motorcycle" depart="78.37" departLane="best" from="918676653#0" to="26176255#3"/>
    <trip id="motorcycle10" type="motorcycle_motorcycle" depart="87.08" departLane="best" from="-5136565#2" to="33776922#2"/>
    <trip id="motorcycle11" type="motorcycle_motorcycle" depart="95.79" departLane="best" from="206293852#0" to="-4969245#2"/>
    <trip id="motorcycle12" type="motorcycle_motorcycle" depart="104.50" departLane="best" departSpeed="max" from="-8110564#3" to="-4444706#2"/>
    <trip id="motorcycle13" type="motorcycle_motorcycle" depart="113.21" departLane="best" from="-5136565#2" to="8086636#1"/>
    <trip id="motorcycle14" type="motorcycle_motorcycle" depart="121.92" departLane="best" from="-38585440" to="4444709#0"/>
    <trip id="motorcycle15" type="motorcycle_motorcycle" depart="130.62" departLane="best" from="-370439010" to="10278054"/>
    <trip id="motorcycle16" type="motorcycle_motorcycle" depart="139.33" departLane="best" from="9673309#1" to="-369084443#2"/>
    <trip id="motorcycle17" type="motorcycle_motorcycle" depart="148.04" departLane="best" from="259023092#5" to="414512199#0"/>
    <trip id="motorcycle18" type="motorcycle_motorcycle" depart="156.75" departLane="best" from="473742773#0" to="-123240453#6"/>
    <trip id="motorcycle19" type="motorcycle_motorcycle" depart="165.46" departLane="best" from="-4444693#3" to="8103325"/>
    <trip id="motorcycle20" type="motorcycle_motorcycle" depart="174.16" departLane="best" departSpeed="max" from="60777068#0" to="-77129354#1"/>
    <trip id="motorcycle21" type="motorcycle_motorcycle" depart="182.87" departLane="best" from="-360307983" to="10899098#0"/>
    <trip id="motorcycle22" type="motorcycle_motorcycle" depart="191.58" departLane="best" from="8027254#0" to="13902624#1"/>
    <trip id="motorcycle23" type="motorcycle_motorcycle" depart="200.29" departLane="best" from="259024849#0" to="5214473#0"/>
    <trip id="motorcycle24" type="motorcycle_motorcycle" depart="209.00" departLane="best" from="83113034#1" to="75356687"/>
    <trip id="motorcycle25" type="motorcycle_motorcycle" depart="217.71" departLane="best" from="1007099280" to="-4928836#0"/>
    <trip id="motorcycle26" type="motorcycle_motorcycle" depart="226.41" departLane="best" from="993040723#0" to="237190956#0"/>
    <trip id="motorcycle27" type="motorcycle_motorcycle" depart="235.12" departLane="best" from="4969252#1" to="1194952070#0"/>
    <trip id="motorcycle28" type="motorcycle_motorcycle" depart="243.83" departLane="best" from="151356111" to="-104422584#1"/>
    <trip id="motorcycle29" type="motorcycle_motorcycle" depart="252.54" departLane="best" from="976283243#2" to="259023090"/>
    <trip id="motorcycle30" type="motorcycle_motorcycle" depart="261.25" departLane="best" from="92023861#3" to="5924061#1"/>
    <trip id="motorcycle31" type="motorcycle_motorcycle" depart="269.95" departLane="best" from="106284945#3" to="4444702#2"/>
    <trip id="motorcycle32" type="motorcycle_motorcycle" depart="278.66" departLane="best" from="-38585442#0" to="259023092#8"/>
    <trip id="motorcycle33" type="motorcycle_motorcycle" depart="287.37" departLane="best" from="1205250024" to="8573804"/>
    <trip id="motorcycle34" type="motorcycle_motorcycle" depart="296.08" departLane="best" from="-15937076#2" to="1202822339#0"/>
    <trip id="motorcycle35" type="motorcycle_motorcycle" depart="304.79" departLane="best" from="8007345" to="608100547"/>
    <trip id="motorcycle36" type="motorcycle_motorcycle" depart="313.50" departLane="best" from="-30641668#4" to="-36341376#1"/>
    <trip id="motorcycle37" type="motorcycle_motorcycle" depart="322.20" departLane="best" from="1006307950" to="-8069838"/>
    <trip id="motorcycle38" type="motorcycle_motorcycle" depart="330.91" departLane="best" from="-11569842" to="8075224"/>
    <trip id="motorcycle39" type="motorcycle_motorcycle" depart="339.62" departLane="best" from="5924061#1" to="142386236"/>
    <trip id="motorcycle40" type="motorcycle_motorcycle" depart="348.33" departLane="best" from="60777068#2" to="82965349#1"/>
    <trip id="motorcycle41" type="motorcycle_motorcycle" depart="357.04" departLane="best" from="189646724#0" to="4965625#1"/>
    <trip id="motorcycle42" type="motorcycle_motorcycle" depart="365.75" departLane="best" from="4928836#1" to="-306802826"/>
    <trip id="motorcycle44" type="motorcycle_motorcycle" depart="383.16" departLane="best" from="-241074262#1" to="4444709#1"/>
    <trip id="motorcycle45" type="motorcycle_motorcycle" depart="391.87" departLane="best" from="976283243#0" to="377879153#0"/>
    <trip id="motorcycle46" type="motorcycle_motorcycle" depart="400.58" departLane="best" from="1163724429#1" to="24655690#1"/>
    <trip id="motorcycle47" type="motorcycle_motorcycle" depart="409.29" departLane="best" departSpeed="max" from="-28126135" to="-4965628#0"/>
    <trip id="motorcycle48" type="motorcycle_motorcycle" depart="417.99" departLane="best" from="-8007347" to="-306802827#2"/>
    <trip id="motorcycle49" type="motorcycle_motorcycle" depart="426.70" departLane="best" from="-473742785#2" to="-4928836#1"/>
    <trip id="motorcycle50" type="motorcycle_motorcycle" depart="435.41" departLane="best" from="473742773#0" to="8027254#3"/>
    <trip id="motorcycle51" type="motorcycle_motorcycle" depart="444.12" departLane="best" from="-5718386#1" to="-19752354#1"/>
    <trip id="motorcycle52" type="motorcycle_motorcycle" depart="452.83" departLane="best" from="4444703#4" to="318312584#1"/>
    <trip id="motorcycle54" type="motorcycle_motorcycle" depart="470.24" departLane="best" from="136592419" to="5029379#0"/>
    <trip id="motorcycle55" type="motorcycle_motorcycle" depart="478.95" departLane="best" from="952141961#1" to="-255680286#0"/>
    <trip id="motorcycle56" type="motorcycle_motorcycle" depart="487.66" departLane="best" departSpeed="max" from="102682117" to="-8086887#2"/>
    <trip id="motorcycle57" type="motorcycle_motorcycle" depart="496.37" departLane="best" from="-414452367" to="13755305#2"/>
    <trip id="motorcycle58" type="motorcycle_motorcycle" depart="505.08" departLane="best" from="-5011978" to="8075220#0"/>
    <trip id="motorcycle59" type="motorcycle_motorcycle" depart="513.78" departLane="best" from="1194935198#0" to="5924061#2"/>
    <trip id="motorcycle60" type="motorcycle_motorcycle" depart="522.49" departLane="best" from="995917616#1" to="5338045#1"/>
    <trip id="motorcycle61" type="motorcycle_motorcycle" depart="531.20" departLane="best" from="92023861#0" to="-8075220#4"/>
    <trip id="motorcycle62" type="motorcycle_motorcycle" depart="539.91" departLane="best" from="-5235666#4" to="38585442#0"/>
    <trip id="motorcycle63" type="motorcycle_motorcycle" depart="548.62" departLane="best" from="-10162010#2" to="-142386719"/>
    <trip id="motorcycle64" type="motorcycle_motorcycle" depart="557.33" departLane="best" from="-918676653#1" to="9673308"/>
    <trip id="motorcycle65" type="motorcycle_motorcycle" depart="566.03" departLane="best" from="-241074266#2" to="1194952070#1"/>
    <trip id="motorcycle66" type="motorcycle_motorcycle" depart="574.74" departLane="best" departSpeed="max" from="-34995761" to="633892178#0"/>
    <trip id="motorcycle67" type="motorcycle_motorcycle" depart="583.45" departLane="best" from="92023859#5" to="29503061#0"/>
    <trip id="motorcycle68" type="motorcycle_motorcycle" depart="592.16" departLane="best" from="24623452#1" to="-4923955#2"/>
    <trip id="motorcycle69" type="motorcycle_motorcycle" depart="600.87" departLane="best" from="206293852#0" to="-414597286#0"/>
    <trip id="motorcycle70" type="motorcycle_motorcycle" depart="609.58" departLane="best" from="27865722#0" to="-412142122#2"/>
    <trip id="motorcycle72" type="motorcycle_motorcycle" depart="626.99" departLane="best" from="-28211733" to="33776922#3"/>
    <trip id="motorcycle73" type="motorcycle_motorcycle" depart="635.70" departLane="best" from="1063515371#2" to="30641668#4"/>
    <trip id="motorcycle74" type="motorcycle_motorcycle" depart="644.41" departLane="best" from="377848435#0" to="-699087325#1"/>
    <trip id="motorcycle75" type="motorcycle_motorcycle" depart="653.12" departLane="best" departSpeed="max" from="-608100547" to="4928891#0"/>
    <trip id="motorcycle76" type="motorcycle_motorcycle" depart="661.82" departLane="best" from="-9930928#0" to="31742832#1"/>
    <trip id="motorcycle77" type="motorcycle_motorcycle" depart="670.53" departLane="best" from="-206121410#1" to="473742773#0"/>
    <trip id="motorcycle79" type="motorcycle_motorcycle" depart="687.95" departLane="best" departSpeed="max" from="-8110564#3" to="37138338"/>
    <trip id="motorcycle80" type="motorcycle_motorcycle" depart="696.66" departLane="best" from="5148790#1" to="429299862#0"/>
    <trip id="motorcycle81" type="motorcycle_motorcycle" depart="705.37" departLane="best" from="-30711136#1" to="-27653255#0"/>
    <trip id="motorcycle82" type="motorcycle_motorcycle" depart="714.07" departLane="best" from="-5148759" to="32702144#1"/>
    <trip id="motorcycle83" type="motorcycle_motorcycle" depart="722.78" departLane="best" from="141064014#2" to="8027254#0"/>
    <trip id="motorcycle84" type="motorcycle_motorcycle" depart="731.49" departLane="best" from="5215870#1" to="23494033#2"/>
    <trip id="motorcycle85" type="motorcycle_motorcycle" depart="740.20" departLane="best" departSpeed="max" from="-1017185237#1" to="-4969244"/>
    <trip id="motorcycle86" type="motorcycle_motorcycle" depart="748.91" departLane="best" from="-33631707#0" to="-5209471#1"/>
    <trip id="motorcycle87" type="motorcycle_motorcycle" depart="757.61" departLane="best" from="-5148790#2" to="30641668#0"/>
    <trip id="motorcycle88" type="motorcycle_motorcycle" depart="766.32" departLane="best" from="-5924063#0" to="75688545#1"/>
    <trip id="motorcycle89" type="motorcycle_motorcycle" depart="775.03" departLane="best" departSpeed="max" from="5012111" to="-5924061#1"/>
    <trip id="motorcycle90" type="motorcycle_motorcycle" depart="783.74" departLane="best" from="-5011978" to="-259921927#3"/>
    <trip id="motorcycle91" type="motorcycle_motorcycle" depart="792.45" departLane="best" from="4965628#0" to="657946880"/>
    <trip id="motorcycle92" type="motorcycle_motorcycle" depart="801.16" departLane="best" from="1199234580" to="4576398#2"/>
    <trip id="motorcycle93" type="motorcycle_motorcycle" depart="809.86" departLane="best" from="5028403" to="5924064#0"/>
    <trip id="motorcycle94" type="motorcycle_motorcycle" depart="818.57" departLane="best" from="5924064#1" to="-5924059#0"/>
    <trip id="motorcycle95" type="motorcycle_motorcycle" depart="827.28" departLane="best" from="-123240453#4" to="-733739481#3"/>
    <trip id="motorcycle96" type="motorcycle_motorcycle" depart="835.99" departLane="best" from="-1194952067" to="420803118#1"/>
    <trip id="motorcycle97" type="motorcycle_motorcycle" depart="844.70" departLane="best" from="-73076803#2" to="5924064#0"/>
    <trip id="motorcycle98" type="motorcycle_motorcycle" depart="853.41" departLane="best" from="92023859#3" to="5718445#0"/>
    <trip id="motorcycle99" type="motorcycle_motorcycle" depart="862.11" departLane="best" from="-939477015#2" to="259023092#7"/>
    <trip id="motorcycle100" type="motorcycle_motorcycle" depart="870.82" departLane="best" from="8086532#2" to="27653255#0"/>
    <trip id="motorcycle101" type="motorcycle_motorcycle" depart="879.53" departLane="best" from="92023861#2" to="1202822339#0"/>
    <trip id="motorcycle102" type="motorcycle_motorcycle" depart="888.24" departLane="best" from="-259921927#4" to="-123240453#4"/>
    <trip id="motorcycle103" type="motorcycle_motorcycle" depart="896.95" departLane="best" from="429299862#2" to="-75356687"/>
    <trip id="motorcycle104" type="motorcycle_motorcycle" depart="905.65" departLane="best" from="30148050#1" to="23952537#1"/>
    <trip id="motorcycle105" type="motorcycle_motorcycle" depart="914.36" departLane="best" from="-93237627" to="-2896894#2"/>
    <trip id="motorcycle106" type="motorcycle_motorcycle" depart="923.07" departLane="best" from="5038944#0" to="442426224#1"/>
    <trip id="motorcycle107" type="motorcycle_motorcycle" depart="931.78" departLane="best" from="23952537#1" to="4444702#0"/>
    <trip id="motorcycle108" type="motorcycle_motorcycle" depart="940.49" departLane="best" from="-4444696#3" to="411476235"/>
    <trip id="motorcycle109" type="motorcycle_motorcycle" depart="949.20" departLane="best" from="370109218#2" to="8075220#3"/>
    <trip id="motorcycle110" type="motorcycle_motorcycle" depart="957.90" departLane="best" from="420803114#0" to="-699087326#2"/>
    <trip id="motorcycle111" type="motorcycle_motorcycle" depart="966.61" departLane="best" from="-5924063#1" to="31542679#1"/>
    <trip id="motorcycle112" type="motorcycle_motorcycle" depart="975.32" departLane="best" from="-30148050#0" to="1194952068#2"/>
    <trip id="motorcycle113" type="motorcycle_motorcycle" depart="984.03" departLane="best" departSpeed="max" from="75097125#0" to="33631707#5"/>
    <trip id="motorcycle114" type="motorcycle_motorcycle" depart="992.74" departLane="best" from="1006307950" to="-5924066#0"/>
    <trip id="motorcycle115" type="motorcycle_motorcycle" depart="1001.44" departLane="best" from="114791187" to="297515269#0"/>
    <trip id="motorcycle116" type="motorcycle_motorcycle" depart="1010.15" departLane="best" from="-1175947149#0" to="473742773#0"/>
    <trip id="motorcycle117" type="motorcycle_motorcycle" depart="1018.86" departLane="best" from="136592427" to="77129354#1"/>
    <trip id="motorcycle118" type="motorcycle_motorcycle" depart="1027.57" departLane="best" departSpeed="max" from="5012111" to="-411078897#0"/>
    <trip id="motorcycle119" type="motorcycle_motorcycle" depart="1036.28" departLane="best" from="-208446042#5" to="24655648#0"/>
    <trip id="motorcycle120" type="motorcycle_motorcycle" depart="1044.99" departLane="best" from="5097691#0" to="4928890"/>
    <trip id="motorcycle121" type="motorcycle_motorcycle" depart="1053.69" departLane="best" from="377879155#0" to="-4965626"/>
    <trip id="motorcycle122" type="motorcycle_motorcycle" depart="1062.40" departLane="best" from="417558222" to="1199234580"/>
    <trip id="motorcycle123" type="motorcycle_motorcycle" depart="1071.11" departLane="best" from="-4969226" to="15555314"/>
    <trip id="motorcycle124" type="motorcycle_motorcycle" depart="1079.82" departLane="best" from="-5338045#0" to="206121405#0"/>
    <trip id="motorcycle125" type="motorcycle_motorcycle" depart="1088.53" departLane="best" from="414597286#1" to="420803114#1"/>
    <trip id="motorcycle126" type="motorcycle_motorcycle" depart="1097.24" departLane="best" from="147260598#0" to="5097666"/>
    <trip id="motorcycle127" type="motorcycle_motorcycle" depart="1105.94" departLane="best" from="360307987" to="10278050"/>
    <trip id="motorcycle128" type="motorcycle_motorcycle" depart="1114.65" departLane="best" from="4444705#2" to="4969240"/>
    <trip id="motorcycle129" type="motorcycle_motorcycle" depart="1123.36" departLane="best" from="-259024754#1" to="1199234575"/>
    <trip id="motorcycle130" type="motorcycle_motorcycle" depart="1132.07" departLane="best" from="38585443#3" to="86124153#2"/>
    <trip id="motorcycle131" type="motorcycle_motorcycle" depart="1140.78" departLane="best" from="206126289#2" to="13866717"/>
    <trip id="motorcycle132" type="motorcycle_motorcycle" depart="1149.48" departLane="best" from="23952537#1" to="5097691#1"/>
    <trip id="motorcycle133" type="motorcycle_motorcycle" depart="1158.19" departLane="best" from="370439013#1" to="9673310"/>
    <trip id="motorcycle134" type="motorcycle_motorcycle" depart="1166.90" departLane="best" from="27865722#0" to="27327968#1"/>
    <trip id="motorcycle135" type="motorcycle_motorcycle" depart="1175.61" departLane="best" from="-420803105" to="222568383"/>
    <trip id="motorcycle136" type="motorcycle_motorcycle" depart="1184.32" departLane="best" from="-5136565#3" to="-259921927#5"/>
    <trip id="motorcycle137" type="motorcycle_motorcycle" depart="1193.03" departLane="best" from="-73076803#2" to="478516443"/>
    <trip id="motorcycle138" type="motorcycle_motorcycle" depart="1201.73" departLane="best" from="4969229#2" to="364641844#0"/>
    <trip id="motorcycle139" type="motorcycle_motorcycle" depart="1210.44" departLane="best" from="4928836#1" to="255680286#0"/>
    <trip id="motorcycle140" type="motorcycle_motorcycle" depart="1219.15" departLane="best" from="-206293099#0" to="-5924064#0"/>
    <trip id="motorcycle141" type="motorcycle_motorcycle" depart="1227.86" departLane="best" from="-241074268#0" to="-330102539#3"/>
    <trip id="motorcycle142" type="motorcycle_motorcycle" depart="1236.57" departLane="best" from="414512200#1" to="-16233365#0"/>
    <trip id="motorcycle143" type="motorcycle_motorcycle" depart="1245.27" departLane="best" from="-30148050#0" to="-8027254#2"/>
    <trip id="motorcycle144" type="motorcycle_motorcycle" depart="1253.98" departLane="best" from="83113034#1" to="420803114#0"/>
    <trip id="motorcycle145" type="motorcycle_motorcycle" depart="1262.69" departLane="best" from="-1191766384" to="4969227"/>
    <trip id="motorcycle146" type="motorcycle_motorcycle" depart="1271.40" departLane="best" from="-92023859#1" to="10278050"/>
    <trip id="motorcycle147" type="motorcycle_motorcycle" depart="1280.11" departLane="best" from="-8075220#0" to="4964396"/>
    <trip id="motorcycle148" type="motorcycle_motorcycle" depart="1288.82" departLane="best" from="1063515371#2" to="4923955#2"/>
    <trip id="motorcycle149" type="motorcycle_motorcycle" depart="1297.52" departLane="best" from="-4444709#0" to="4928836#0"/>
    <trip id="motorcycle150" type="motorcycle_motorcycle" depart="1306.23" departLane="best" from="11569840#2" to="-122718426#1"/>
    <trip id="motorcycle151" type="motorcycle_motorcycle" depart="1314.94" departLane="best" from="-77129354#1" to="-413104170#3"/>
    <trip id="motorcycle152" type="motorcycle_motorcycle" depart="1323.65" departLane="best" from="-10278052#1" to="38585441#0"/>
    <trip id="motorcycle153" type="motorcycle_motorcycle" depart="1332.36" departLane="best" from="31542682" to="-1208289376"/>
    <trip id="motorcycle154" type="motorcycle_motorcycle" depart="1341.07" departLane="best" from="9673308" to="-27653246#0"/>
    <trip id="motorcycle155" type="motorcycle_motorcycle" depart="1349.77" departLane="best" from="-1208289376" to="370439008"/>
    <trip id="motorcycle156" type="motorcycle_motorcycle" depart="1358.48" departLane="best" from="-13871627#1" to="10278053"/>
    <trip id="motorcycle157" type="motorcycle_motorcycle" depart="1367.19" departLane="best" from="-4444696#2" to="-8069840#3"/>
    <trip id="motorcycle158" type="motorcycle_motorcycle" depart="1375.90" departLane="best" from="478472523" to="10278053"/>
    <trip id="motorcycle159" type="motorcycle_motorcycle" depart="1384.61" departLane="best" from="4444707#0" to="5235666#2"/>
    <trip id="motorcycle160" type="motorcycle_motorcycle" depart="1393.31" departLane="best" from="-11569842" to="259024849#0"/>
    <trip id="motorcycle162" type="motorcycle_motorcycle" depart="1410.73" departLane="best" from="-35872863#0" to="4964399"/>
    <trip id="motorcycle163" type="motorcycle_motorcycle" depart="1419.44" departLane="best" from="1202822338" to="-443406811"/>
    <trip id="motorcycle164" type="motorcycle_motorcycle" depart="1428.15" departLane="best" from="2896894#2" to="411094914#0"/>
    <trip id="motorcycle165" type="motorcycle_motorcycle" depart="1436.86" departLane="best" from="413104170#0" to="4969228#1"/>
    <trip id="motorcycle166" type="motorcycle_motorcycle" depart="1445.56" departLane="best" from="4444703#6" to="-27653252#2"/>
    <trip id="motorcycle167" type="motorcycle_motorcycle" depart="1454.27" departLane="best" from="-259921927#4" to="-1208288697"/>
    <trip id="motorcycle168" type="motorcycle_motorcycle" depart="1462.98" departLane="best" from="-5924066#0" to="-473742785#2"/>
    <trip id="motorcycle169" type="motorcycle_motorcycle" depart="1471.69" departLane="best" from="862064757#0" to="10899098#3"/>
    <trip id="motorcycle170" type="motorcycle_motorcycle" depart="1480.40" departLane="best" from="255680286#1" to="4969245#3"/>
    <trip id="motorcycle171" type="motorcycle_motorcycle" depart="1489.10" departLane="best" from="-5338045#1" to="31762921#1"/>
    <trip id="motorcycle172" type="motorcycle_motorcycle" depart="1497.81" departLane="best" departSpeed="max" from="-28126135" to="956456013#0"/>
    <trip id="motorcycle173" type="motorcycle_motorcycle" depart="1506.52" departLane="best" from="1130923672#0" to="9930928#0"/>
    <trip id="motorcycle174" type="motorcycle_motorcycle" depart="1515.23" departLane="best" from="18161610#1" to="-8089378#2"/>
    <trip id="motorcycle175" type="motorcycle_motorcycle" depart="1523.94" departLane="best" from="-5338045#0" to="5168929#1"/>
    <trip id="motorcycle176" type="motorcycle_motorcycle" depart="1532.65" departLane="best" departSpeed="max" from="-25610550#2" to="8659423#1"/>
    <trip id="motorcycle177" type="motorcycle_motorcycle" depart="1541.35" departLane="best" from="-414512200#4" to="-123240453#5"/>
    <trip id="motorcycle178" type="motorcycle_motorcycle" depart="1550.06" departLane="best" from="442426224#1" to="92023859#0"/>
    <trip id="motorcycle179" type="motorcycle_motorcycle" depart="1558.77" departLane="best" from="-5148757#0" to="5136341#0"/>
    <trip id="motorcycle180" type="motorcycle_motorcycle" depart="1567.48" departLane="best" from="23952537#0" to="185577690"/>
    <trip id="motorcycle181" type="motorcycle_motorcycle" depart="1576.19" departLane="best" from="11569840#2" to="4444709#1"/>
    <trip id="motorcycle182" type="motorcycle_motorcycle" depart="1584.90" departLane="best" departSpeed="max" from="-5136565#4" to="5718444#1"/>
    <trip id="motorcycle183" type="motorcycle_motorcycle" depart="1593.60" departLane="best" from="-5136565#4" to="-208446042#6"/>
    <trip id="motorcycle184" type="motorcycle_motorcycle" depart="1602.31" departLane="best" from="123620607#3" to="330026285"/>
    <trip id="motorcycle185" type="motorcycle_motorcycle" depart="1611.02" departLane="best" from="918676653#1" to="-122718426#1"/>
    <trip id="motorcycle186" type="motorcycle_motorcycle" depart="1619.73" departLane="best" from="-5338045#2" to="13866707#0"/>
    <trip id="motorcycle187" type="motorcycle_motorcycle" depart="1628.44" departLane="best" from="-4444696#2" to="-5095111"/>
    <trip id="motorcycle188" type="motorcycle_motorcycle" depart="1637.14" departLane="best" from="-8027254#3" to="62091761#0"/>
    <trip id="motorcycle189" type="motorcycle_motorcycle" depart="1645.85" departLane="best" from="-414320736#1" to="5718386#3"/>
    <trip id="motorcycle190" type="motorcycle_motorcycle" depart="1654.56" departLane="best" from="104422584#4" to="82965349#2"/>
    <trip id="motorcycle191" type="motorcycle_motorcycle" depart="1663.27" departLane="best" from="-208446042#6" to="4444702#1"/>
    <trip id="motorcycle192" type="motorcycle_motorcycle" depart="1671.98" departLane="best" from="141064014#2" to="4964449#0"/>
    <trip id="motorcycle193" type="motorcycle_motorcycle" depart="1680.69" departLane="best" from="411094912#1" to="370443420"/>
    <trip id="motorcycle194" type="motorcycle_motorcycle" depart="1689.39" departLane="best" from="142386719" to="5046739#2"/>
    <trip id="motorcycle195" type="motorcycle_motorcycle" depart="1698.10" departLane="best" from="-241074262#1" to="4964400"/>
    <trip id="motorcycle196" type="motorcycle_motorcycle" depart="1706.81" departLane="best" from="262279473#0" to="151356111"/>
    <trip id="motorcycle197" type="motorcycle_motorcycle" depart="1715.52" departLane="best" from="220940220#0" to="1199234580"/>
    <trip id="motorcycle198" type="motorcycle_motorcycle" depart="1724.23" departLane="best" from="-5028396" to="-2896894#1"/>
    <trip id="motorcycle199" type="motorcycle_motorcycle" depart="1732.93" departLane="best" from="13870955#0" to="-4444703#6"/>
    <trip id="motorcycle200" type="motorcycle_motorcycle" depart="1741.64" departLane="best" from="93237627" to="25600876#4"/>
    <trip id="motorcycle201" type="motorcycle_motorcycle" depart="1750.35" departLane="best" from="-414512201" to="-4969226"/>
    <trip id="motorcycle202" type="motorcycle_motorcycle" depart="1759.06" departLane="best" from="-411094913#2" to="-1086139962"/>
    <trip id="motorcycle203" type="motorcycle_motorcycle" depart="1767.77" departLane="best" from="9277499#0" to="26176257"/>
    <trip id="motorcycle204" type="motorcycle_motorcycle" depart="1776.48" departLane="best" from="-5924061#1" to="206125630#0"/>
    <trip id="motorcycle206" type="motorcycle_motorcycle" depart="1793.89" departLane="best" from="5095153" to="-128882191"/>
    <trip id="motorcycle207" type="motorcycle_motorcycle" depart="1802.60" departLane="best" from="412142122#2" to="13870665#1"/>
    <trip id="motorcycle208" type="motorcycle_motorcycle" depart="1811.31" departLane="best" from="-8086636#1" to="16233365#0"/>
    <trip id="motorcycle209" type="motorcycle_motorcycle" depart="1820.02" departLane="best" from="5097791#0" to="1114906169#2"/>
    <trip id="motorcycle210" type="motorcycle_motorcycle" depart="1828.73" departLane="best" from="-206124247#2" to="-330102539#1"/>
    <trip id="motorcycle211" type="motorcycle_motorcycle" depart="1837.43" departLane="best" from="-141064014#4" to="35872863#1"/>
    <trip id="motorcycle212" type="motorcycle_motorcycle" depart="1846.14" departLane="best" from="976145666" to="-28109752#1"/>
    <trip id="motorcycle213" type="motorcycle_motorcycle" depart="1854.85" departLane="best" from="4923955#2" to="32702147#0"/>
    <trip id="motorcycle214" type="motorcycle_motorcycle" depart="1863.56" departLane="best" from="1175947149#1" to="5924061#0"/>
    <trip id="motorcycle215" type="motorcycle_motorcycle" depart="1872.27" departLane="best" from="31515296" to="32952316"/>
    <trip id="motorcycle216" type="motorcycle_motorcycle" depart="1880.97" departLane="best" from="4444693#0" to="82965349#2"/>
    <trip id="motorcycle217" type="motorcycle_motorcycle" depart="1889.68" departLane="best" from="443406807" to="4444709#0"/>
    <trip id="motorcycle218" type="motorcycle_motorcycle" depart="1898.39" departLane="best" from="377848435#0" to="370439010"/>
    <trip id="motorcycle219" type="motorcycle_motorcycle" depart="1907.10" departLane="best" from="995917616#1" to="206124247#3"/>