<?xml version="1.0" encoding="UTF-8"?>

<!-- generated on 2024-04-23 20:24:45.609936 by osmWebWizard.py v1_19_0+0000-baa66a0f364
<configuration>
    <net-file value="F:\SUMO\OptimalEmission-SUMO-ReinforcementLearning\2024-04-23-20-24-12\osm.net.xml.gz"/>
    <output-trip-file value="F:\SUMO\OptimalEmission-SUMO-ReinforcementLearning\2024-04-23-20-24-12\osm.truck.trips.xml"/>
    <route-file value="F:\SUMO\OptimalEmission-SUMO-ReinforcementLearning\2024-04-23-20-24-12\osm.truck.rou.xml"/>
    <prefix value="truck"/>
    <trip-attributes value="departLane=&quot;best&quot;"/>
    <fringe-start-attributes value="departSpeed=&quot;max&quot;"/>
    <vehicle-class value="truck"/>
    <fringe-factor value="5"/>
    <vclass value="truck"/>
    <via-edge-types value="highway.motorway,highway.motorway_link,highway.trunk_link,highway.primary_link,highway.secondary_link,highway.tertiary_link"/>
    <min-distance value="600.0"/>
    <min-distance.fringe value="10.0"/>
    <remove-loops value="True"/>
    <validate value="True"/>
    <insertion-density value="8.0"/>
</configuration>
-->

<!-- generated on 2024-04-23 20:24:44 by Eclipse SUMO duarouter Version 1.19.0
<configuration xmlns:xsi="http://www.w3.org/2001/XMLSchema-instance" xsi:noNamespaceSchemaLocation="http://sumo.dlr.de/xsd/duarouterConfiguration.xsd">

    <input>
        <net-file value="F:\SUMO\OptimalEmission-SUMO-ReinforcementLearning\2024-04-23-20-24-12\osm.net.xml.gz"/>
        <route-files value="F:\SUMO\OptimalEmission-SUMO-ReinforcementLearning\2024-04-23-20-24-12\osm.truck.trips.xml"/>
    </input>

    <output>
        <output-file value="F:\SUMO\OptimalEmission-SUMO-ReinforcementLearning\2024-04-23-20-24-12\osm.truck.trips.xml.tmp"/>
        <alternatives-output value="NUL"/>
        <write-trips value="true"/>
    </output>

    <processing>
        <remove-loops value="true"/>
    </processing>

    <time>
        <begin value="0.0"/>
        <end value="3600.0"/>
    </time>

    <report>
        <no-warnings value="true"/>
        <ignore-errors value="true"/>
        <no-step-log value="true"/>
    </report>

</configuration>
-->

<routes xmlns:xsi="http://www.w3.org/2001/XMLSchema-instance" xsi:noNamespaceSchemaLocation="http://sumo.dlr.de/xsd/routes_file.xsd">
    <vType id="truck_truck" vClass="truck"/>
    <trip id="truck0" type="truck_truck" depart="0.00" departLane="best" from="31542682" to="5148790#3"/>
    <trip id="truck1" type="truck_truck" depart="4.37" departLane="best" from="429299862#2" to="420803114#2"/>
    <trip id="truck2" type="truck_truck" depart="8.74" departLane="best" from="68999162" to="-220940220#0"/>
    <trip id="truck3" type="truck_truck" depart="13.11" departLane="best" from="-975313000#0" to="-123240447"/>
    <trip id="truck4" type="truck_truck" depart="17.48" departLane="best" from="-4444705#4" to="-241074268#2"/>
    <trip id="truck5" type="truck_truck" depart="21.85" departLane="best" from="-1208288697" to="-4553661#2"/>
    <trip id="truck6" type="truck_truck" depart="26.22" departLane="best" from="-32952316" to="-262279466#2"/>
    <trip id="truck7" type="truck_truck" depart="30.59" departLane="best" from="-4444709#0" to="31762921#1"/>
    <trip id="truck8" type="truck_truck" depart="34.96" departLane="best" from="5028403" to="4444702#0"/>
    <trip id="truck9" type="truck_truck" depart="39.33" departLane="best" departSpeed="max" from="-61489779" to="379028417#0"/>
    <trip id="truck10" type="truck_truck" depart="43.70" departLane="best" from="-86124153#2" to="-820363771#2"/>
    <trip id="truck11" type="truck_truck" depart="48.07" departLane="best" from="1206566096" to="25607761#0"/>
    <trip id="truck12" type="truck_truck" depart="52.43" departLane="best" from="-5028405#0" to="491622153#0"/>
    <trip id="truck13" type="truck_truck" depart="56.80" departLane="best" from="206124247#4" to="93237631"/>
    <trip id="truck14" type="truck_truck" depart="61.17" departLane="best" departSpeed="max" from="-8075224" to="27580472#1"/>
    <trip id="truck15" type="truck_truck" depart="65.54" departLane="best" from="-5122705#2" to="35872863#1"/>
    <trip id="truck16" type="truck_truck" depart="69.91" departLane="best" from="-5718386#2" to="30681330"/>
    <trip id="truck17" type="truck_truck" depart="74.28" departLane="best" from="412142123" to="-137827094#2"/>
    <trip id="truck18" type="truck_truck" depart="78.65" departLane="best" departSpeed="max" from="-4576398#2" to="-69154450"/>
    <trip id="truck19" type="truck_truck" depart="83.02" departLane="best" from="-206293853#3" to="-5097691#0"/>
    <trip id="truck21" type="truck_truck" depart="91.76" departLane="best" from="-38585440" to="491622153#0"/>
    <trip id="truck22" type="truck_truck" depart="96.13" departLane="best" from="9673308" to="379075439"/>
    <trip id="truck23" type="truck_truck" depart="100.50" departLane="best" from="5155813#5" to="5057945"/>
    <trip id="truck24" type="truck_truck" depart="104.87" departLane="best" departSpeed="max" from="-45846807" to="-123620607#0"/>
    <trip id="truck25" type="truck_truck" depart="109.24" departLane="best" from="4444693#0" to="8110235"/>
    <trip id="truck26" type="truck_truck" depart="113.61" departLane="best" departSpeed="max" from="60777068#0" to="-8007347"/>
    <trip id="truck27" type="truck_truck" depart="117.98" departLane="best" from="-33776922#0" to="110417545"/>
    <trip id="truck28" type="truck_truck" depart="122.35" departLane="best" from="75688545#1" to="142386720"/>
    <trip id="truck29" type="truck_truck" depart="126.72" departLane="best" from="-86124153#2" to="-4969244"/>
    <trip id="truck30" type="truck_truck" depart="131.09" departLane="best" from="23952537#0" to="-137827094#4"/>
    <trip id="truck31" type="truck_truck" depart="135.46" departLane="best" from="-259921927#5" to="370109217#0"/>
    <trip id="truck32" type="truck_truck" depart="139.83" departLane="best" from="4969238" to="1206565916"/>
    <trip id="truck33" type="truck_truck" depart="144.20" departLane="best" from="-15102866#2" to="-106284945#3"/>
    <trip id="truck34" type="truck_truck" depart="148.57" departLane="best" from="106284945#3" to="46154135"/>
    <trip id="truck35" type="truck_truck" depart="152.94" departLane="best" from="377184802" to="-259921927#3"/>
    <trip id="truck36" type="truck_truck" depart="157.30" departLane="best" from="-5122705#2" to="38585440"/>
    <trip id="truck37" type="truck_truck" depart="161.67" departLane="best" from="26176255#1" to="129375448#0"/>
    <trip id="truck38" type="truck_truck" depart="166.04" departLane="best" from="1114906169#2" to="85249004"/>
    <trip id="truck39" type="truck_truck" depart="170.41" departLane="best" departSpeed="max" from="60777068#0" to="5718386#0"/>
    <trip id="truck40" type="truck_truck" depart="174.78" departLane="best" from="137827094#4" to="415342162"/>
    <trip id="truck41" type="truck_truck" depart="179.15" departLane="best" from="75221791#2" to="61489778#1"/>
    <trip id="truck42" type="truck_truck" depart="183.52" departLane="best" departSpeed="max" from="-5235666#5" to="379028417#0"/>
    <trip id="truck43" type="truck_truck" depart="187.89" departLane="best" from="27653247#0" to="377879155#0"/>
    <trip id="truck45" type="truck_truck" depart="196.63" departLane="best" departSpeed="max" from="4965621" to="259024754#0"/>
    <trip id="truck46" type="truck_truck" depart="201.00" departLane="best" from="-1006307950" to="-8075220#1"/>
    <trip id="truck48" type="truck_truck" depart="209.74" departLane="best" from="60777068#1" to="5718313#1"/>
    <trip id="truck49" type="truck_truck" depart="214.11" departLane="best" from="-5718313#1" to="15102866#1"/>
    <trip id="truck50" type="truck_truck" depart="218.48" departLane="best" departSpeed="max" from="60777068#0" to="82965349#0"/>
    <trip id="truck51" type="truck_truck" depart="222.85" departLane="best" from="-18161610#1" to="5028387"/>
    <trip id="truck52" type="truck_truck" depart="227.22" departLane="best" from="478516448#1" to="-318312584#0"/>
    <trip id="truck54" type="truck_truck" depart="235.96" departLane="best" from="-5097691#0" to="61489779"/>
    <trip id="truck55" type="truck_truck" depart="240.33" departLane="best" from="-995621020" to="-4965626"/>
    <trip id="truck56" type="truck_truck" depart="244.70" departLane="best" from="976145666" to="411078897#1"/>
    <trip id="truck57" type="truck_truck" depart="249.07" departLane="best" from="10619993#3" to="25607735#0"/>
    <trip id="truck58" type="truck_truck" depart="253.44" departLane="best" departSpeed="max" from="-28126135" to="-5012111"/>
    <trip id="truck59" type="truck_truck" depart="257.81" departLane="best" departSpeed="max" from="-45846807" to="-4969244"/>
    <trip id="truck60" type="truck_truck" depart="262.17" departLane="best" from="19752354#1" to="370443420"/>
    <trip id="truck61" type="truck_truck" depart="266.54" departLane="best" from="-4444703#3" to="-330102539#1"/>
    <trip id="truck62" type="truck_truck" depart="270.91" departLane="best" from="8075220#3" to="-30148050#2"/>
    <trip id="truck63" type="truck_truck" depart="275.28" departLane="best" from="1194952070#0" to="206121410#1"/>
    <trip id="truck64" type="truck_truck" depart="279.65" departLane="best" from="-5028405#1" to="-4444693#3"/>
    <trip id="truck65" type="truck_truck" depart="284.02" departLane="best" departSpeed="max" from="-242071659" to="12717049"/>
    <trip id="truck66" type="truck_truck" depart="288.39" departLane="best" from="-1006307950" to="15102866#2"/>
    <trip id="truck67" type="truck_truck" depart="292.76" departLane="best" from="420803114#1" to="-415624684#1"/>
    <trip id="truck68" type="truck_truck" depart="297.13" departLane="best" from="-939477015#3" to="259024754#1"/>
    <trip id="truck69" type="truck_truck" depart="301.50" departLane="best" departSpeed="max" from="-8659423#1" to="86124153#1"/>
    <trip id="truck70" type="truck_truck" depart="305.87" departLane="best" from="5718386#2" to="-5155813#2"/>
    <trip id="truck71" type="truck_truck" depart="310.24" departLane="best" from="-414320736#0" to="13902623#0"/>
    <trip id="truck72" type="truck_truck" depart="314.61" departLane="best" from="-975313000#0" to="-5924250"/>
    <trip id="truck73" type="truck_truck" depart="318.98" departLane="best" departSpeed="max" from="208446042#0" to="13871627#0"/>
    <trip id="truck74" type="truck_truck" depart="323.35" departLane="best" from="995917616#1" to="5718386#5"/>
    <trip id="truck75" type="truck_truck" depart="327.72" departLane="best" from="92023861#2" to="8075228#1"/>
    <trip id="truck76" type="truck_truck" depart="332.09" departLane="best" from="5214509#0" to="-412142123"/>
    <trip id="truck77" type="truck_truck" depart="336.46" departLane="best" from="123620607#0" to="-4965629#2"/>
    <trip id="truck78" type="truck_truck" depart="340.83" departLane="best" departSpeed="max" from="-8659423#1" to="15102866#2"/>
    <trip id="truck79" type="truck_truck" depart="345.20" departLane="best" from="86124153#2" to="9930928#0"/>
    <trip id="truck80" type="truck_truck" depart="349.57" departLane="best" from="231540136#0" to="45846807"/>
    <trip id="truck81" type="truck_truck" depart="353.94" departLane="best" departSpeed="max" from="-34995761" to="-733739481#3"/>
    <trip id="truck82" type="truck_truck" depart="358.31" departLane="best" from="92023861#2" to="30681331#2"/>
    <trip id="truck83" type="truck_truck" depart="362.67" departLane="best" from="206451117" to="4969227"/>
    <trip id="truck84" type="truck_truck" depart="367.04" departLane="best" departSpeed="max" from="-142386720" to="31533524#1"/>
    <trip id="truck85" type="truck_truck" depart="371.41" departLane="best" departSpeed="max" from="-34995761" to="8659423#0"/>
    <trip id="truck86" type="truck_truck" depart="375.78" departLane="best" from="-206293853#3" to="429299863#0"/>
    <trip id="truck87" type="truck_truck" depart="380.15" departLane="best" from="262279462" to="-420803105"/>
    <trip id="truck88" type="truck_truck" depart="384.52" departLane="best" from="-473742785#2" to="-30148050#1"/>
    <trip id="truck89" type="truck_truck" depart="388.89" departLane="best" from="65411736" to="5148790#1"/>
    <trip id="truck90" type="truck_truck" depart="393.26" departLane="best" from="26176257" to="35872865#1"/>
    <trip id="truck91" type="truck_truck" depart="397.63" departLane="best" departSpeed="max" from="-9673310" to="31533524#1"/>
    <trip id="truck92" type="truck_truck" depart="402.00" departLane="best" from="163919423#0" to="8086636#3"/>
    <trip id="truck93" type="truck_truck" depart="406.37" departLane="best" from="-429299863#2" to="4576398#2"/>
    <trip id="truck94" type="truck_truck" depart="410.74" departLane="best" departSpeed="max" from="-491622153#2" to="110417545"/>
    <trip id="truck95" type="truck_truck" depart="415.11" departLane="best" from="364641844#1" to="75097124#0"/>
    <trip id="truck96" type="truck_truck" depart="419.48" departLane="best" from="-5718445#0" to="4969238"/>
    <trip id="truck97" type="truck_truck" depart="423.85" departLane="best" from="206121410#1" to="-4965628#1"/>
    <trip id="truck98" type="truck_truck" depart="428.22" departLane="best" from="-5097691#0" to="8086636#1"/>
    <trip id="truck99" type="truck_truck" depart="432.59" departLane="best" from="60957570" to="65411736"/>
    <trip id="truck100" type="truck_truck" depart="436.96" departLane="best" from="-8069840#3" to="-38585441#0"/>
    <trip id="truck101" type="truck_truck" depart="441.33" departLane="best" from="-5136565#2" to="4444705#0"/>
    <trip id="truck102" type="truck_truck" depart="445.70" departLane="best" from="27653256#1" to="9673310"/>
    <trip id="truck103" type="truck_truck" depart="450.07" departLane="best" from="-5078963#2" to="-733739481#3"/>
    <trip id="truck104" type="truck_truck" depart="454.44" departLane="best" from="34423006#2" to="-8089378#2"/>
    <trip id="truck105" type="truck_truck" depart="458.81" departLane="best" from="-306802826" to="-28109752#0"/>
    <trip id="truck106" type="truck_truck" depart="463.18" departLane="best" from="-259024754#0" to="27653246#1"/>
    <trip id="truck107" type="truck_truck" depart="467.54" departLane="best" departSpeed="max" from="414597286#0" to="-481799129"/>
    <trip id="truck108" type="truck_truck" depart="471.91" departLane="best" from="30681331#1" to="5718386#1"/>
    <trip id="truck109" type="truck_truck" depart="476.28" departLane="best" departSpeed="max" from="128882184" to="-80503958#2"/>
    <trip id="truck110" type="truck_truck" depart="480.65" departLane="best" from="1006307950" to="-5924250"/>
    <trip id="truck111" type="truck_truck" depart="485.02" departLane="best" from="-956456014" to="5718313#0"/>
    <trip id="truck112" type="truck_truck" depart="489.39" departLane="best" from="443406804" to="27580472#1"/>
    <trip id="truck113" type="truck_truck" depart="493.76" departLane="best" departSpeed="max" from="102682117" to="-106284945#1"/>
    <trip id="truck114" type="truck_truck" depart="498.13" departLane="best" from="-206124247#4" to="699087327"/>
    <trip id="truck115" type="truck_truck" depart="502.50" departLane="best" from="-75097124#1" to="262279470#1"/>
    <trip id="truck116" type="truck_truck" depart="506.87" departLane="best" from="-5136565#4" to="31515296"/>
    <trip id="truck117" type="truck_truck" depart="511.24" departLane="best" departSpeed="max" from="-33631707#5" to="31762921#0"/>
    <trip id="truck118" type="truck_truck" depart="515.61" departLane="best" from="-5718386#0" to="8027254#0"/>
    <trip id="truck119" type="truck_truck" depart="519.98" departLane="best" from="4969252#2" to="-60777068#3"/>
    <trip id="truck120" type="truck_truck" depart="524.35" departLane="best" from="-73076803#0" to="-4965626"/>
    <trip id="truck121" type="truck_truck" depart="528.72" departLane="best" from="-4964449#4" to="26176255#2"/>
    <trip id="truck122" type="truck_truck" depart="533.09" departLane="best" from="4965625#0" to="-708520110"/>
    <trip id="truck124" type="truck_truck" depart="541.83" departLane="best" from="60777068#3" to="-8086532#0"/>
    <trip id="truck125" type="truck_truck" depart="546.20" departLane="best" from="5029382#0" to="5718444#0"/>
    <trip id="truck126" type="truck_truck" depart="550.57" departLane="best" from="4969226" to="-262279466#2"/>
    <trip id="truck127" type="truck_truck" depart="554.94" departLane="best" from="5924064#0" to="-5924250"/>
    <trip id="truck128" type="truck_truck" depart="559.31" departLane="best" departSpeed="max" from="-4444709#1" to="5215870#1"/>
    <trip id="truck129" type="truck_truck" depart="563.68" departLane="best" from="368611216#0" to="-75221790"/>
    <trip id="truck130" type="truck_truck" depart="568.04" departLane="best" from="4969252#1" to="-5029380"/>
    <trip id="truck131" type="truck_truck" depart="572.41" departLane="best" from="-5924064#1" to="610577374#3"/>
    <trip id="truck132" type="truck_truck" depart="576.78" departLane="best" from="92023859#5" to="-60777068#0"/>
    <trip id="truck133" type="truck_truck" depart="581.15" departLane="best" from="31762921#0" to="1130923672#0"/>
    <trip id="truck134" type="truck_truck" depart="585.52" departLane="best" departSpeed="max" from="93237634#0" to="259921926#0"/>
    <trip id="truck135" type="truck_truck" depart="589.89" departLane="best" from="8075228#1" to="-28109752#0"/>
    <trip id="truck136" type="truck_truck" depart="594.26" departLane="best" departSpeed="max" from="920971212" to="-415342162"/>
    <trip id="truck137" type="truck_truck" depart="598.63" departLane="best" from="-259921927#3" to="129375448#0"/>
    <trip id="truck138" type="truck_truck" depart="603.00" departLane="best" from="27580472#1" to="24896343"/>
    <trip id="truck139" type="truck_truck" depart="607.37" departLane="best" from="-8086636#1" to="306802826"/>
    <trip id="truck140" type="truck_truck" depart="611.74" departLane="best" from="-4969240" to="4444709#1"/>
    <trip id="truck141" type="truck_truck" depart="616.11" departLane="best" from="-10162010#2" to="8075225"/>
    <trip id="truck142" type="truck_truck" depart="620.48" departLane="best" from="-206293099#0" to="45846807"/>
    <trip id="truck143" type="truck_truck" depart="624.85" departLane="best" from="443406807" to="414597286#1"/>
    <trip id="truck144" type="truck_truck" depart="629.22" departLane="best" from="35810515" to="-8086532#1"/>
    <trip id="truck145" type="truck_truck" depart="633.59" departLane="best" departSpeed="max" from="-5718386#5" to="58878927"/>
    <trip id="truck146" type="truck_truck" depart="637.96" departLane="best" from="414597286#1" to="75097124#1"/>
    <trip id="truck147" type="truck_truck" depart="642.33" departLane="best" from="-5718386#1" to="1174486351#0"/>
    <trip id="truck148" type="truck_truck" depart="646.70" departLane="best" departSpeed="max" from="-8659423#1" to="-73076803#1"/>
    <trip id="truck149" type="truck_truck" depart="651.07" departLane="best" from="8086532#0" to="420803114#3"/>
    <trip id="truck150" type="truck_truck" depart="655.44" departLane="best" departSpeed="max" from="733739481#0" to="34995761"/>
    <trip id="truck151" type="truck_truck" depart="659.81" departLane="best" from="-5338045#3" to="26424787"/>
    <trip id="truck152" type="truck_truck" depart="664.18" departLane="best" from="-1006307950" to="610577375"/>
    <trip id="truck153" type="truck_truck" depart="668.55" departLane="best" from="-104422584#0" to="30681331#3"/>
    <trip id="truck154" type="truck_truck" depart="672.91" departLane="best" from="106284945#2" to="30732136#0"/>
    <trip id="truck155" type="truck_truck" depart="677.28" departLane="best" from="1194952070#1" to="8027258#1"/>
    <trip id="truck156" type="truck_truck" depart="681.65" departLane="best" from="1194935198#1" to="25600876#2"/>
    <trip id="truck157" type="truck_truck" depart="686.02" departLane="best" from="30681330" to="-8089633#0"/>
    <trip id="truck158" type="truck_truck" depart="690.39" departLane="best" from="5095153" to="4969229#2"/>
    <trip id="truck159" type="truck_truck" depart="694.76" departLane="best" from="377848435#0" to="-5012111"/>
    <trip id="truck160" type="truck_truck" depart="699.13" departLane="best" from="-939477015#3" to="370439010"/>
    <trip id="truck161" type="truck_truck" depart="703.50" departLane="best" from="-414512200#4" to="4444693#3"/>
    <trip id="truck162" type="truck_truck" depart="707.87" departLane="best" from="136592419" to="-5148757#0"/>
    <trip id="truck163" type="truck_truck" depart="712.24" departLane="best" from="-33776922#1" to="-104422584#1"/>
    <trip id="truck164" type="truck_truck" depart="716.61" departLane="best" from="4444703#0" to="5038944#0"/>
    <trip id="truck165" type="truck_truck" depart="720.98" departLane="best" departSpeed="max" from="-25610550#2" to="121620229"/>
    <trip id="truck166" type="truck_truck" depart="725.35" departLane="best" departSpeed="max" from="-391740779" to="86124153#1"/>
    <trip id="truck167" type="truck_truck" depart="729.72" departLane="best" from="15102866#1" to="-13870665#1"/>
    <trip id="truck168" type="truck_truck" depart="734.09" departLane="best" from="-4964449#4" to="58878927"/>
    <trip id="truck169" type="truck_truck" depart="738.46" departLane="best" from="35872865#1" to="9673310"/>
    <trip id="truck170" type="truck_truck" depart="742.83" departLane="best" from="262279463" to="83113034#1"/>
    <trip id="truck171" type="truck_truck" depart="747.20" departLane="best" from="679273382" to="-34423006#2"/>
    <trip id="truck172" type="truck_truck" depart="751.57" departLane="best" departSpeed="max" from="414597286#0" to="-241074268#0"/>
    <trip id="truck173" type="truck_truck" depart="755.94" departLane="best" from="-5130513#0" to="26424787"/>
    <trip id="truck174" type="truck_truck" depart="760.31" departLane="best" from="699087325#1" to="4965625#0"/>
    <trip id="truck175" type="truck_truck" depart="764.68" departLane="best" from="-4928890" to="378655061#0"/>
    <trip id="truck176" type="truck_truck" depart="769.05" departLane="best" from="478516448#1" to="25610550#1"/>
    <trip id="truck177" type="truck_truck" depart="773.42" departLane="best" from="-30641668#2" to="-5924066#0"/>
    <trip id="truck178" type="truck_truck" depart="777.78" departLane="best" from="206293099#1" to="-60957570"/>
    <trip id="truck179" type="truck_truck" depart="782.15" departLane="best" from="-5136341#0" to="8069836#0"/>
    <trip id="truck180" type="truck_truck" depart="786.52" departLane="best" from="206293851" to="33776922#2"/>
    <trip id="truck181" type="truck_truck" depart="790.89" departLane="best" departSpeed="max" from="-45846807" to="4444393"/>
    <trip id="truck182" type="truck_truck" depart="795.26" departLane="best" from="-473742785#2" to="18161610#1"/>
    <trip id="truck183" type="truck_truck" depart="799.63" departLane="best" from="-92023859#3" to="-26176256"/>
    <trip id="truck184" type="truck_truck" depart="804.00" departLane="best" from="1086178289#0" to="4928836#1"/>
    <trip id="truck185" type="truck_truck" depart="808.37" departLane="best" departSpeed="max" from="-9673310" to="80503958#1"/>
    <trip id="truck186" type="truck_truck" depart="812.74" departLane="best" from="259921926#0" to="4444693#0"/>
    <trip id="truck187" type="truck_truck" depart="817.11" departLane="best" departSpeed="max" from="-75097124#4" to="4969245#0"/>
    <trip id="truck188" type="truck_truck" depart="821.48" departLane="best" from="-5338045#1" to="85249004"/>
    <trip id="truck189" type="truck_truck" depart="825.85" departLane="best" departSpeed="max" from="-9673310" to="-4969226"/>
    <trip id="truck190" type="truck_truck" depart="830.22" departLane="best" departSpeed="max" from="207169038#0" to="33631707#5"/>
    <trip id="truck191" type="truck_truck" depart="834.59" departLane="best" from="104422584#4" to="-123240445"/>
    <trip id="truck192" type="truck_truck" depart="838.96" departLane="best" from="-61489778#0" to="422017370"/>
    <trip id="truck193" type="truck_truck" depart="843.33" departLane="best" from="918676653#0" to="-412142122#1"/>
    <trip id="truck194" type="truck_truck" depart="847.70" departLane="best" from="1175947149#0" to="-318312583#1"/>
    <trip id="truck195" type="truck_truck" depart="852.07" departLane="best" from="-2896894#2" to="-1208289383"/>
    <trip id="truck196" type="truck_truck" depart="856.44" departLane="best" from="-1208289210" to="38585442#0"/>
    <trip id="truck197" type="truck_truck" depart="860.81" departLane="best" from="30711136#0" to="147260598#2"/>
    <trip id="truck198" type="truck_truck" depart="865.18" departLane="best" from="-4444693#3" to="8075221"/>
    <trip id="truck199" type="truck_truck" depart="869.55" departLane="best" from="4553663#3" to="10619993#1"/>
    <trip id="truck200" type="truck_truck" depart="873.92" departLane="best" from="4444703#4" to="5718313#1"/>
    <trip id="truck203" type="truck_truck" depart="887.02" departLane="best" from="29503061#0" to="5097666"/>
    <trip id="truck204" type="truck_truck" depart="891.39" departLane="best" from="330376871" to="4969245#3"/>
    <trip id="truck205" type="truck_truck" depart="895.76" departLane="best" from="1130923672#1" to="377879153#0"/>
    <trip id="truck207" type="truck_truck" depart="904.50" departLane="best" from="411094912#1" to="5029382#0"/>
    <trip id="truck208" type="truck_truck" depart="908.87" departLane="best" from="377879157#0" to="33776922#4"/>
    <trip id="truck209" type="truck_truck" depart="913.24" departLane="best" from="-4444696#3" to="-28109752#0"/>
    <trip id="truck210" type="truck_truck" depart="917.61" departLane="best" from="5097666" to="918676653#1"/>
    <trip id="truck211" type="truck_truck" depart="921.98" departLane="best" from="259024754#1" to="-1208288697"/>
    <trip id="truck212" type="truck_truck" depart="926.35" departLane="best" departSpeed="max" from="-5718386#5" to="420803114#3"/>
    <trip id="truck213" type="truck_truck" depart="930.72" departLane="best" from="862064757#0" to="1110653362"/>
    <trip id="truck214" type="truck_truck" depart="935.09" departLane="best" from="-38585441#0" to="370109217#0"/>
    <trip id="truck215" type="truck_truck" depart="939.46" departLane="best" from="-5235666#0" to="33631707#2"/>
    <trip id="truck216" type="truck_truck" depart="943.83" departLane="best" departSpeed="max" from="-28126135" to="9673308"/>
    <trip id="truck218" type="truck_truck" depart="952.57" departLane="best" departSpeed="max" from="102682117" to="1017185237#1"/>
    <trip id="truck219" type="truck_truck" depart="956.94" departLane="best" from="13902623#0" to="-873209872#2"/>
    <trip id="truck220" type="truck_truck" depart="961.31" departLane="best" from="5215870#1" to="5338045#0"/>
    <trip id="truck221" type="truck_truck" depart="965.68" departLane="best" from="30681331#3" to="553093704#0"/>
    <trip id="truck222" type="truck_truck" depart="970.05" departLane="best" from="-413104170#0" to="129375449"/>
    <trip id="truck223" type="truck_truck" depart="974.42" departLane="best" from="422366394#0" to="92023859#0"/>
    <trip id="truck224" type="truck_truck" depart="978.79" departLane="best" departSpeed="max" from="-5130513#2" to="5168949"/>
    <trip id="truck225" type="truck_truck" depart="983.15" departLane="best" from="206126289#2" to="206124247#3"/>
    <trip id="truck226" type="truck_truck" depart="987.52" departLane="best" from="104422584#3" to="-4923955#2"/>
    <trip id="truck227" type="truck_truck" depart="991.89" departLane="best" departSpeed="max" from="-5130513#2" to="5924059#1"/>
    <trip id="truck228" type="truck_truck" depart="996.26" departLane="best" from="-5130513#0" to="-220940220#0"/>
    <trip id="truck229" type="truck_truck" depart="1000.63" departLane="best" departSpeed="max" from="610192017#0" to="5148757#0"/>
    <trip id="truck231" type="truck_truck" depart="1009.37" departLane="best" departSpeed="max" from="-8075224" to="-123240445"/>
    <trip id="truck232" type="truck_truck" depart="1013.74" departLane="best" from="-4444696#2" to="5148757#2"/>
    <trip id="truck233" type="truck_truck" depart="1018.11" departLane="best" departSpeed="max" from="-61489779" to="679273382"/>
    <trip id="truck234" type="truck_truck" depart="1022.48" departLane="best" from="412138230#0" to="-5924250"/>
    <trip id="truck235" type="truck_truck" depart="1026.85" departLane="best" from="104422584#3" to="82965349#2"/>
    <trip id="truck236" type="truck_truck" depart="1031.22" departLane="best" from="5047995#1" to="46154135"/>
    <trip id="truck237" type="truck_truck" depart="1035.59" departLane="best" departSpeed="max" from="128882184" to="5012114#1"/>
    <trip id="truck238" type="truck_truck" depart="1039.96" departLane="best" from="-38585441#0" to="400948145#0"/>
    <trip id="truck239" type="truck_truck" depart="1044.33" departLane="best" from="128882191" to="5136341#1"/>
    <trip id="truck240" type="truck_truck" depart="1048.70" departLane="best" from="241074268#0" to="-4969254#2"/>
    <trip id="truck241" type="truck_truck" depart="1053.07" departLane="best" from="38585442#0" to="-75221790"/>
    <trip id="truck242" type="truck_truck" depart="1057.44" departLane="best" departSpeed="max" from="19752354#0" to="122718426#0"/>
    <trip id="truck243" type="truck_truck" depart="1061.81" departLane="best" from="412142122#0" to="5924061#2"/>
    <trip id="truck244" type="truck_truck" depart="1066.18" departLane="best" from="4965632" to="-30148050#2"/>
    <trip id="truck245" type="truck_truck" depart="1070.55" departLane="best" from="206124247#3" to="5028403"/>
    <trip id="truck246" type="truck_truck" depart="1074.92" departLane="best" from="412142122#0" to="-4969229#2"/>
    <trip id="truck247" type="truck_truck" depart="1079.29" departLane="best" from="123240453#5" to="478472522"/>