<?xml version="1.0" encoding="UTF-8"?>

<!-- generated on 2024-04-23 20:24:41.496323 by osmWebWizard.py v1_19_0+0000-baa66a0f364
<configuration>
    <net-file value="F:\SUMO\OptimalEmission-SUMO-ReinforcementLearning\2024-04-23-20-24-12\osm.net.xml.gz"/>
    <output-trip-file value="F:\SUMO\OptimalEmission-SUMO-ReinforcementLearning\2024-04-23-20-24-12\osm.passenger.trips.xml"/>
    <route-file value="F:\SUMO\OptimalEmission-SUMO-ReinforcementLearning\2024-04-23-20-24-12\osm.passenger.rou.xml"/>
    <prefix value="veh"/>
    <trip-attributes value="departLane=&quot;best&quot;"/>
    <fringe-start-attributes value="departSpeed=&quot;max&quot;"/>
    <vehicle-class value="passenger"/>
    <lanes value="True"/>
    <fringe-factor value="5"/>
    <allow-fringe.min-length value="1000.0"/>
    <via-edge-types value="highway.motorway,highway.motorway_link,highway.trunk_link,highway.primary_link,highway.secondary_link,highway.tertiary_link"/>
    <min-distance value="300.0"/>
    <min-distance.fringe value="10.0"/>
    <remove-loops value="True"/>
    <validate value="True"/>
    <insertion-density value="12.0"/>
</configuration>
-->

<!-- generated on 2024-04-23 20:24:41 by Eclipse SUMO duarouter Version 1.19.0
<configuration xmlns:xsi="http://www.w3.org/2001/XMLSchema-instance" xsi:noNamespaceSchemaLocation="http://sumo.dlr.de/xsd/duarouterConfiguration.xsd">

    <input>
        <net-file value="F:\SUMO\OptimalEmission-SUMO-ReinforcementLearning\2024-04-23-20-24-12\osm.net.xml.gz"/>
        <route-files value="F:\SUMO\OptimalEmission-SUMO-ReinforcementLearning\2024-04-23-20-24-12\osm.passenger.trips.xml"/>
    </input>

    <output>
        <output-file value="F:\SUMO\OptimalEmission-SUMO-ReinforcementLearning\2024-04-23-20-24-12\osm.passenger.trips.xml.tmp"/>
        <alternatives-output value="NUL"/>
        <write-trips value="true"/>
    </output>

    <processing>
        <remove-loops value="true"/>
    </processing>

    <time>
        <begin value="0.0"/>
        <end value="3600.0"/>
    </time>

    <report>
        <no-warnings value="true"/>
        <ignore-errors value="true"/>
        <no-step-log value="true"/>
    </report>

</configuration>
-->

<routes xmlns:xsi="http://www.w3.org/2001/XMLSchema-instance" xsi:noNamespaceSchemaLocation="http://sumo.dlr.de/xsd/routes_file.xsd">
    <vType id="veh_passenger" vClass="passenger"/>
    <trip id="veh0" type="veh_passenger" depart="0.00" departLane="best" from="31515296" to="-123240445"/>
    <trip id="veh1" type="veh_passenger" depart="2.91" departLane="best" from="-5168929#0" to="-5029380"/>
    <trip id="veh2" type="veh_passenger" depart="5.83" departLane="best" from="414498696#0" to="411078897#1"/>
    <trip id="veh3" type="veh_passenger" depart="8.74" departLane="best" from="610577374#3" to="-259024754#1"/>
    <trip id="veh4" type="veh_passenger" depart="11.65" departLane="best" from="1163724429#1" to="-1268386974#1"/>
    <trip id="veh5" type="veh_passenger" depart="14.57" departLane="best" from="-4576398#0" to="-329973322#1"/>
    <trip id="veh6" type="veh_passenger" depart="17.48" departLane="best" from="123240453#2" to="478516443"/>
    <trip id="veh7" type="veh_passenger" depart="20.39" departLane="best" from="32702144#1" to="27327968#2"/>
    <trip id="veh8" type="veh_passenger" depart="23.30" departLane="best" departSpeed="max" from="-4576398#2" to="31533524#1"/>
    <trip id="veh9" type="veh_passenger" depart="26.22" departLane="best" from="4965628#1" to="-106284945#1"/>
    <trip id="veh10" type="veh_passenger" depart="29.13" departLane="best" from="4965625#1" to="414498698#0"/>
    <trip id="veh11" type="veh_passenger" depart="32.04" departLane="best" from="85754430#1" to="-954383101"/>
    <trip id="veh12" type="veh_passenger" depart="34.96" departLane="best" from="-25607761#3" to="-262279465"/>
    <trip id="veh13" type="veh_passenger" depart="37.87" departLane="best" from="-5130513#1" to="32702147#0"/>
    <trip id="veh15" type="veh_passenger" depart="43.70" departLane="best" from="259023091#0" to="-945632558#2"/>
    <trip id="veh16" type="veh_passenger" depart="46.61" departLane="best" from="-93237631" to="-27653252#2"/>
    <trip id="veh17" type="veh_passenger" depart="49.52" departLane="best" from="5029379#1" to="34147630#3"/>
    <trip id="veh18" type="veh_passenger" depart="52.43" departLane="best" from="5214509#1" to="30681330"/>
    <trip id="veh19" type="veh_passenger" depart="55.35" departLane="best" from="378655061#0" to="-141064014#1"/>
    <trip id="veh20" type="veh_passenger" depart="58.26" departLane="best" from="478472521" to="-75221790"/>
    <trip id="veh21" type="veh_passenger" depart="61.17" departLane="best" departSpeed="max" from="-237190956#1" to="-51014403"/>
    <trip id="veh22" type="veh_passenger" depart="64.09" departLane="best" from="-259921927#3" to="-699087325#1"/>
    <trip id="veh23" type="veh_passenger" depart="67.00" departLane="best" from="-30711136#1" to="1110653362"/>
    <trip id="veh24" type="veh_passenger" depart="69.91" departLane="best" departSpeed="max" from="-8659423#1" to="-4965626"/>
    <trip id="veh25" type="veh_passenger" depart="72.83" departLane="best" departSpeed="max" from="-5136565#4" to="8086532#2"/>
    <trip id="veh26" type="veh_passenger" depart="75.74" departLane="best" from="31963583" to="330376871"/>
    <trip id="veh27" type="veh_passenger" depart="78.65" departLane="best" departSpeed="max" from="-391740779" to="4444689#1"/>
    <trip id="veh28" type="veh_passenger" depart="81.57" departLane="best" from="-378655059" to="-1175947149#2"/>
    <trip id="veh29" type="veh_passenger" depart="84.48" departLane="best" from="972976967" to="370109218#2"/>
    <trip id="veh30" type="veh_passenger" depart="87.39" departLane="best" from="259882555#0" to="411476235"/>
    <trip id="veh31" type="veh_passenger" depart="90.30" departLane="best" from="5097791#0" to="4969226"/>
    <trip id="veh32" type="veh_passenger" depart="93.22" departLane="best" from="-478516443" to="-128882184"/>
    <trip id="veh33" type="veh_passenger" depart="96.13" departLane="best" departSpeed="max" from="-61489778#1" to="-60777068#3"/>
    <trip id="veh34" type="veh_passenger" depart="99.04" departLane="best" from="5924059#1" to="-8089633#1"/>
    <trip id="veh35" type="veh_passenger" depart="101.96" departLane="best" departSpeed="max" from="733739481#0" to="206451117"/>
    <trip id="veh36" type="veh_passenger" depart="104.87" departLane="best" from="-5136565#2" to="5235666#4"/>
    <trip id="veh37" type="veh_passenger" depart="107.78" departLane="best" from="259921926#1" to="-5924250"/>
    <trip id="veh38" type="veh_passenger" depart="110.70" departLane="best" departSpeed="max" from="262279465" to="-414512198#1"/>
    <trip id="veh39" type="veh_passenger" depart="113.61" departLane="best" from="5028396" to="-5012111"/>
    <trip id="veh40" type="veh_passenger" depart="116.52" departLane="best" from="993040723#0" to="259023092#2"/>
    <trip id="veh41" type="veh_passenger" depart="119.44" departLane="best" from="-25607735#2" to="-142154855#1"/>
    <trip id="veh43" type="veh_passenger" depart="125.26" departLane="best" from="993040722" to="259921927#4"/>
    <trip id="veh44" type="veh_passenger" depart="128.17" departLane="best" departSpeed="max" from="920971212" to="58878927"/>
    <trip id="veh45" type="veh_passenger" depart="131.09" departLane="best" departSpeed="max" from="-106286247#2" to="-436581184#1"/>
    <trip id="veh46" type="veh_passenger" depart="134.00" departLane="best" departSpeed="max" from="-5136565#4" to="370439008"/>
    <trip id="veh47" type="veh_passenger" depart="136.91" departLane="best" from="27653255#0" to="151356111"/>
    <trip id="veh48" type="veh_passenger" depart="139.83" departLane="best" departSpeed="max" from="128882184" to="85249004"/>
    <trip id="veh49" type="veh_passenger" depart="142.74" departLane="best" from="-5924059#0" to="-5924250"/>
    <trip id="veh50" type="veh_passenger" depart="145.65" departLane="best" from="206293852#2" to="-420803118#1"/>
    <trip id="veh51" type="veh_passenger" depart="148.57" departLane="best" departSpeed="max" from="733739481#0" to="608100547"/>
    <trip id="veh52" type="veh_passenger" depart="151.48" departLane="best" departSpeed="max" from="-5718445#1" to="370109218#0"/>
    <trip id="veh53" type="veh_passenger" depart="154.39" departLane="best" departSpeed="max" from="28109752#0" to="379075438#0"/>
    <trip id="veh54" type="veh_passenger" depart="157.30" departLane="best" from="429299862#0" to="262279470#1"/>
    <trip id="veh55" type="veh_passenger" depart="160.22" departLane="best" from="4444703#4" to="-261736473#1"/>
    <trip id="veh56" type="veh_passenger" depart="163.13" departLane="best" from="1007099280" to="-920971212"/>
    <trip id="veh57" type="veh_passenger" depart="166.04" departLane="best" from="1194935198#0" to="8075224"/>
    <trip id="veh58" type="veh_passenger" depart="168.96" departLane="best" from="-5924063#1" to="5214476#1"/>
    <trip id="veh59" type="veh_passenger" depart="171.87" departLane="best" from="-5924066#0" to="-19752354#0"/>
    <trip id="veh60" type="veh_passenger" depart="174.78" departLane="best" from="-5924061#2" to="8110564#2"/>
    <trip id="veh61" type="veh_passenger" depart="177.70" departLane="best" from="207169038#1" to="491622153#0"/>
    <trip id="veh62" type="veh_passenger" depart="180.61" departLane="best" from="436581184#0" to="31762921#1"/>
    <trip id="veh63" type="veh_passenger" depart="183.52" departLane="best" from="-147260598#0" to="27653246#1"/>
    <trip id="veh64" type="veh_passenger" depart="186.44" departLane="best" from="-5136565#2" to="608100547"/>
    <trip id="veh65" type="veh_passenger" depart="189.35" departLane="best" from="1174486351#0" to="30732136#0"/>
    <trip id="veh66" type="veh_passenger" depart="192.26" departLane="best" from="259023091#1" to="4444691"/>
    <trip id="veh67" type="veh_passenger" depart="195.17" departLane="best" from="976283243#2" to="370582479#1"/>
    <trip id="veh69" type="veh_passenger" depart="201.00" departLane="best" from="-2896894#1" to="-5046739#1"/>
    <trip id="veh70" type="veh_passenger" depart="203.91" departLane="best" from="-80503958#1" to="31533524#1"/>
    <trip id="veh71" type="veh_passenger" depart="206.83" departLane="best" from="-478516443" to="-5012111"/>
    <trip id="veh72" type="veh_passenger" depart="209.74" departLane="best" from="-208446042#5" to="36341376#0"/>
    <trip id="veh73" type="veh_passenger" depart="212.65" departLane="best" from="-478516443" to="75356687"/>
    <trip id="veh74" type="veh_passenger" depart="215.57" departLane="best" from="-5214473#1" to="-208446042#3"/>
    <trip id="veh75" type="veh_passenger" depart="218.48" departLane="best" from="-4923955#2" to="38585443#2"/>
    <trip id="veh76" type="veh_passenger" depart="221.39" departLane="best" from="4444706#0" to="33776922#2"/>
    <trip id="veh77" type="veh_passenger" depart="224.30" departLane="best" from="-8069836#2" to="30641881#1"/>
    <trip id="veh78" type="veh_passenger" depart="227.22" departLane="best" departSpeed="max" from="14338196" to="4969254#0"/>
    <trip id="veh80" type="veh_passenger" depart="233.04" departLane="best" departSpeed="max" from="-25610550#2" to="147260598#2"/>
    <trip id="veh81" type="veh_passenger" depart="235.96" departLane="best" from="1174486351#0" to="222568383"/>
    <trip id="veh82" type="veh_passenger" depart="238.87" departLane="best" from="412142123" to="4017598#0"/>
    <trip id="veh83" type="veh_passenger" depart="241.78" departLane="best" from="952141961#1" to="-262279465"/>
    <trip id="veh85" type="veh_passenger" depart="247.61" departLane="best" from="5214509#1" to="5338045#3"/>
    <trip id="veh86" type="veh_passenger" depart="250.52" departLane="best" from="-414512200#4" to="206124247#4"/>
    <trip id="veh87" type="veh_passenger" depart="253.44" departLane="best" from="-11569842" to="-699087325#1"/>
    <trip id="veh88" type="veh_passenger" depart="256.35" departLane="best" from="-5011978" to="8075215"/>
    <trip id="veh89" type="veh_passenger" depart="259.26" departLane="best" from="-5148790#0" to="58878927"/>
    <trip id="veh90" type="veh_passenger" depart="262.17" departLane="best" from="259024849#0" to="15102866#2"/>
    <trip id="veh91" type="veh_passenger" depart="265.09" departLane="best" from="995917616#1" to="5235666#2"/>
    <trip id="veh92" type="veh_passenger" depart="268.00" departLane="best" from="92023861#2" to="8075220#1"/>
    <trip id="veh93" type="veh_passenger" depart="270.91" departLane="best" from="5136343#1" to="414320736#2"/>
    <trip id="veh94" type="veh_passenger" depart="273.83" departLane="best" from="-189646724#3" to="-4969229#1"/>
    <trip id="veh95" type="veh_passenger" depart="276.74" departLane="best" departSpeed="max" from="106284945#0" to="-206121404#2"/>
    <trip id="veh96" type="veh_passenger" depart="279.65" departLane="best" from="93237631" to="9673310"/>
    <trip id="veh97" type="veh_passenger" depart="282.57" departLane="best" from="-5136565#2" to="27489046#1"/>
    <trip id="veh99" type="veh_passenger" depart="288.39" departLane="best" from="85754430#1" to="993040723#0"/>
    <trip id="veh100" type="veh_passenger" depart="291.31" departLane="best" from="259882554#0" to="429299863#1"/>
    <trip id="veh101" type="veh_passenger" depart="294.22" departLane="best" from="-369084443#2" to="-8007349"/>
    <trip id="veh102" type="veh_passenger" depart="297.13" departLane="best" from="92023861#2" to="30681331#1"/>
    <trip id="veh103" type="veh_passenger" depart="300.04" departLane="best" from="259023092#11" to="45846807"/>
    <trip id="veh104" type="veh_passenger" depart="302.96" departLane="best" from="-163919423#1" to="-30711136#1"/>
    <trip id="veh105" type="veh_passenger" depart="305.87" departLane="best" from="206451117" to="5718443"/>
    <trip id="veh106" type="veh_passenger" depart="308.78" departLane="best" from="-370439010" to="142386719"/>
    <trip id="veh107" type="veh_passenger" depart="311.70" departLane="best" from="-23952537#0" to="-4444693#2"/>
    <trip id="veh108" type="veh_passenger" depart="314.61" departLane="best" from="83113034#1" to="411078896#0"/>
    <trip id="veh109" type="veh_passenger" depart="317.52" departLane="best" departSpeed="max" from="-491622153#2" to="-30711136#1"/>
    <trip id="veh110" type="veh_passenger" depart="320.44" departLane="best" departSpeed="max" from="610192017#0" to="5235666#3"/>
    <trip id="veh111" type="veh_passenger" depart="323.35" departLane="best" from="27327968#1" to="206293853#0"/>
    <trip id="veh112" type="veh_passenger" depart="326.26" departLane="best" from="1153024462" to="-30711136#1"/>
    <trip id="veh114" type="veh_passenger" depart="332.09" departLane="best" from="-443617342#0" to="426790052"/>
    <trip id="veh115" type="veh_passenger" depart="335.00" departLane="best" departSpeed="max" from="-4928835" to="1206565916"/>
    <trip id="veh116" type="veh_passenger" depart="337.91" departLane="best" from="-360307983" to="-80503958#1"/>
    <trip id="veh117" type="veh_passenger" depart="340.83" departLane="best" departSpeed="max" from="-61489778#1" to="46154135"/>
    <trip id="veh118" type="veh_passenger" depart="343.74" departLane="best" from="1194935198#1" to="206451117"/>
    <trip id="veh119" type="veh_passenger" depart="346.65" departLane="best" from="5047995#1" to="4969229#0"/>
    <trip id="veh121" type="veh_passenger" depart="352.48" departLane="best" from="5924066#0" to="61489778#1"/>
    <trip id="veh122" type="veh_passenger" depart="355.39" departLane="best" departSpeed="max" from="8659423#1" to="-411078897#0"/>
    <trip id="veh123" type="veh_passenger" depart="358.31" departLane="best" from="5046739#0" to="414512199#0"/>
    <trip id="veh125" type="veh_passenger" depart="364.13" departLane="best" from="-32952316" to="-106284945#1"/>
    <trip id="veh126" type="veh_passenger" depart="367.04" departLane="best" from="4969252#0" to="-80503958#0"/>
    <trip id="veh127" type="veh_passenger" depart="369.96" departLane="best" from="34147630#2" to="8086636#3"/>
    <trip id="veh128" type="veh_passenger" depart="372.87" departLane="best" from="-32612686#2" to="30641668#4"/>
    <trip id="veh129" type="veh_passenger" depart="375.78" departLane="best" from="-26180560" to="-27653255#0"/>
    <trip id="veh130" type="veh_passenger" depart="378.70" departLane="best" from="-5148790#0" to="32702148"/>
    <trip id="veh131" type="veh_passenger" depart="381.61" departLane="best" from="4017598#0" to="-4923955#1"/>
    <trip id="veh132" type="veh_passenger" depart="384.52" departLane="best" from="30681331#3" to="-5924250"/>
    <trip id="veh133" type="veh_passenger" depart="387.44" departLane="best" departSpeed="max" from="19752354#0" to="75356687"/>
    <trip id="veh134" type="veh_passenger" depart="390.35" departLane="best" from="-5122705#2" to="-26180560"/>
    <trip id="veh135" type="veh_passenger" depart="393.26" departLane="best" from="1174486351#0" to="370109217#0"/>
    <trip id="veh136" type="veh_passenger" depart="396.17" departLane="best" departSpeed="max" from="-1017185237#1" to="4964402"/>
    <trip id="veh137" type="veh_passenger" depart="399.09" departLane="best" from="-478516445" to="-5924250"/>
    <trip id="veh138" type="veh_passenger" depart="402.00" departLane="best" from="414512200#2" to="-27653252#2"/>
    <trip id="veh139" type="veh_passenger" depart="404.91" departLane="best" from="1194935198#0" to="106286247#0"/>
    <trip id="veh140" type="veh_passenger" depart="407.83" departLane="best" departSpeed="max" from="-237190956#1" to="62091754#0"/>
    <trip id="veh141" type="veh_passenger" depart="410.74" departLane="best" from="657946880" to="27327968#4"/>
    <trip id="veh142" type="veh_passenger" depart="413.65" departLane="best" from="5046739#2" to="30681331#3"/>
    <trip id="veh143" type="veh_passenger" depart="416.57" departLane="best" departSpeed="max" from="-34995761" to="-330102539#1"/>
    <trip id="veh144" type="veh_passenger" depart="419.48" departLane="best" from="-5924066#2" to="-73076803#0"/>
    <trip id="veh145" type="veh_passenger" depart="422.39" departLane="best" from="4928836#0" to="58878927"/>
    <trip id="veh146" type="veh_passenger" depart="425.31" departLane="best" from="633892178#0" to="-4965626"/>
    <trip id="veh147" type="veh_passenger" depart="428.22" departLane="best" from="-5011978" to="-27653246#0"/>
    <trip id="veh148" type="veh_passenger" depart="431.13" departLane="best" from="-4444704" to="62091754#0"/>
    <trip id="veh149" type="veh_passenger" depart="434.04" departLane="best" from="1063515371#2" to="-34423006#2"/>
    <trip id="veh150" type="veh_passenger" depart="436.96" departLane="best" from="369084443#0" to="8075224"/>
    <trip id="veh151" type="veh_passenger" depart="439.87" departLane="best" from="-5338045#0" to="945632572#1"/>
    <trip id="veh152" type="veh_passenger" depart="442.78" departLane="best" from="4965632" to="61489779"/>
    <trip id="veh153" type="veh_passenger" depart="445.70" departLane="best" from="-122718426#1" to="-4444704"/>
    <trip id="veh154" type="veh_passenger" depart="448.61" departLane="best" from="-77129354#0" to="8075224"/>
    <trip id="veh155" type="veh_passenger" depart="451.52" departLane="best" from="-4964449#4" to="-5924061#1"/>
    <trip id="veh156" type="veh_passenger" depart="454.44" departLane="best" from="4965632" to="-60777068#1"/>
    <trip id="veh157" type="veh_passenger" depart="457.35" departLane="best" from="474433014" to="-28109752#0"/>
    <trip id="veh158" type="veh_passenger" depart="460.26" departLane="best" from="-5718386#3" to="58878923#1"/>
    <trip id="veh159" type="veh_passenger" depart="463.18" departLane="best" departSpeed="max" from="-45846807" to="5136341#1"/>
    <trip id="veh160" type="veh_passenger" depart="466.09" departLane="best" from="13755305#2" to="-8075220#3"/>
    <trip id="veh161" type="veh_passenger" depart="469.00" departLane="best" from="4923955#2" to="-5097691#0"/>
    <trip id="veh162" type="veh_passenger" depart="471.91" departLane="best" from="-1220113515" to="-4444707#1"/>
    <trip id="veh163" type="veh_passenger" depart="474.83" departLane="best" departSpeed="max" from="-75097124#4" to="-5924061#2"/>
    <trip id="veh164" type="veh_passenger" depart="477.74" departLane="best" from="92023859#4" to="708605466"/>
    <trip id="veh165" type="veh_passenger" depart="480.65" departLane="best" from="31564228" to="122718426#0"/>
    <trip id="veh166" type="veh_passenger" depart="483.57" departLane="best" from="-939477015#2" to="370439013#1"/>
    <trip id="veh167" type="veh_passenger" depart="486.48" departLane="best" from="8075214#0" to="30641668#3"/>
    <trip id="veh168" type="veh_passenger" depart="489.39" departLane="best" departSpeed="max" from="920971212" to="-420803118#0"/>
    <trip id="veh169" type="veh_passenger" depart="492.31" departLane="best" from="8659425#0" to="-60777068#0"/>
    <trip id="veh170" type="veh_passenger" depart="495.22" departLane="best" from="262279474#0" to="151356111"/>
    <trip id="veh171" type="veh_passenger" depart="498.13" departLane="best" from="28013623" to="259023092#5"/>
    <trip id="veh172" type="veh_passenger" depart="501.04" departLane="best" from="9673308" to="30681330"/>
    <trip id="veh173" type="veh_passenger" depart="503.96" departLane="best" from="5046739#2" to="-415624684#2"/>
    <trip id="veh174" type="veh_passenger" depart="506.87" departLane="best" from="-1017185237#0" to="40776646"/>
    <trip id="veh175" type="veh_passenger" depart="509.78" departLane="best" from="414512200#5" to="400948145#0"/>
    <trip id="veh176" type="veh_passenger" depart="512.70" departLane="best" departSpeed="max" from="-8110564#3" to="-207169038#1"/>
    <trip id="veh177" type="veh_passenger" depart="515.61" departLane="best" from="34147630#3" to="-93237634#0"/>
    <trip id="veh178" type="veh_passenger" depart="518.52" departLane="best" from="-610577375" to="5718386#0"/>
    <trip id="veh179" type="veh_passenger" depart="521.44" departLane="best" from="411078896#0" to="-80503958#2"/>
    <trip id="veh180" type="veh_passenger" depart="524.35" departLane="best" from="60777068#2" to="131519476#0"/>
    <trip id="veh181" type="veh_passenger" depart="527.26" departLane="best" departSpeed="max" from="106284945#0" to="795532703#0"/>
    <trip id="veh182" type="veh_passenger" depart="530.18" departLane="best" from="306802826" to="-13902624#0"/>
    <trip id="veh183" type="veh_passenger" depart="533.09" departLane="best" from="8075219" to="411094912#1"/>
    <trip id="veh184" type="veh_passenger" depart="536.00" departLane="best" from="65411736" to="33776922#3"/>
    <trip id="veh185" type="veh_passenger" depart="538.91" departLane="best" departSpeed="max" from="-58878927" to="27580472#0"/>
    <trip id="veh186" type="veh_passenger" depart="541.83" departLane="best" from="1006307950" to="-75097125#0"/>
    <trip id="veh187" type="veh_passenger" depart="544.74" departLane="best" from="-1194952067" to="30681331#1"/>
    <trip id="veh188" type="veh_passenger" depart="547.65" departLane="best" from="29503061#0" to="222568382#0"/>
    <trip id="veh189" type="veh_passenger" depart="550.57" departLane="best" from="1205250024" to="-4969229#1"/>
    <trip id="veh190" type="veh_passenger" depart="553.48" departLane="best" departSpeed="max" from="14338196" to="75097124#2"/>
    <trip id="veh191" type="veh_passenger" depart="556.39" departLane="best" from="-4928836#0" to="414512200#2"/>
    <trip id="veh192" type="veh_passenger" depart="559.31" departLane="best" departSpeed="max" from="-242071659" to="259024754#0"/>
    <trip id="veh193" type="veh_passenger" depart="562.22" departLane="best" from="30681331#2" to="-954383101"/>
    <trip id="veh194" type="veh_passenger" depart="565.13" departLane="best" from="4969252#1" to="46154135"/>
    <trip id="veh195" type="veh_passenger" depart="568.04" departLane="best" from="361376447#0" to="-5046739#0"/>
    <trip id="veh196" type="veh_passenger" depart="570.96" departLane="best" from="422024564" to="-122718426#1"/>
    <trip id="veh197" type="veh_passenger" depart="573.87" departLane="best" from="-4965629#2" to="237190956#0"/>
    <trip id="veh198" type="veh_passenger" depart="576.78" departLane="best" from="-5136565#3" to="-220940220#0"/>
    <trip id="veh199" type="veh_passenger" depart="579.70" departLane="best" from="1130923672#1" to="361376447#0"/>
    <trip id="veh200" type="veh_passenger" depart="582.61" departLane="best" from="-415342164#2" to="4444393"/>
    <trip id="veh201" type="veh_passenger" depart="585.52" departLane="best" from="206126289#1" to="5214473#0"/>
    <trip id="veh202" type="veh_passenger" depart="588.44" departLane="best" from="330102539#2" to="-104422584#3"/>
    <trip id="veh203" type="veh_passenger" depart="591.35" departLane="best" from="415624684#2" to="4964401#1"/>
    <trip id="veh204" type="veh_passenger" depart="594.26" departLane="best" from="8590786#0" to="142386236"/>
    <trip id="veh205" type="veh_passenger" depart="597.18" departLane="best" departSpeed="max" from="-411094915" to="86124153#1"/>
    <trip id="veh206" type="veh_passenger" depart="600.09" departLane="best" from="231540136#1" to="15102866#1"/>
    <trip id="veh207" type="veh_passenger" depart="603.00" departLane="best" from="-4969254#2" to="5718386#0"/>
    <trip id="veh208" type="veh_passenger" depart="605.91" departLane="best" from="131519476#1" to="5057947"/>
    <trip id="veh209" type="veh_passenger" depart="608.83" departLane="best" from="35810515" to="975312999"/>
    <trip id="veh210" type="veh_passenger" depart="611.74" departLane="best" from="27327968#2" to="82965349#3"/>
    <trip id="veh211" type="veh_passenger" depart="614.65" departLane="best" departSpeed="max" from="610192017#0" to="33631707#5"/>
    <trip id="veh212" type="veh_passenger" depart="617.57" departLane="best" from="411078896#0" to="259023091#1"/>
    <trip id="veh213" type="veh_passenger" depart="620.48" departLane="best" from="5029382#0" to="27489046#1"/>
    <trip id="veh214" type="veh_passenger" depart="623.39" departLane="best" from="62091754#0" to="4553663#1"/>
    <trip id="veh215" type="veh_passenger" depart="626.31" departLane="best" departSpeed="max" from="14338196" to="5924063#2"/>
    <trip id="veh216" type="veh_passenger" depart="629.22" departLane="best" from="4969229#1" to="370109217#0"/>
    <trip id="veh217" type="veh_passenger" depart="632.13" departLane="best" from="-436581184#1" to="259882553"/>
    <trip id="veh218" type="veh_passenger" depart="635.05" departLane="best" from="306802827#0" to="-69154450"/>
    <trip id="veh219" type="veh_passenger" depart="637.96" departLane="best" departSpeed="max" from="-237190956#1" to="-75097125#0"/>
    <trip id="veh220" type="veh_passenger" depart="640.87" departLane="best" from="-5148759" to="-918676653#1"/>
    <trip id="veh221" type="veh_passenger" depart="643.78" departLane="best" from="259023092#1" to="-35992700"/>
    <trip id="veh222" type="veh_passenger" depart="646.70" departLane="best" from="-478516445" to="414452367"/>
    <trip id="veh223" type="veh_passenger" depart="649.61" departLane="best" from="379028415" to="-206293099#3"/>
    <trip id="veh224" type="veh_passenger" depart="652.52" departLane="best" from="1079118368" to="26424787"/>
    <trip id="veh225" type="veh_passenger" depart="655.44" departLane="best" from="114791191#0" to="4964400"/>
    <trip id="veh226" type="veh_passenger" depart="658.35" departLane="best" from="11569840#1" to="-75221791#3"/>
    <trip id="veh227" type="veh_passenger" depart="661.26" departLane="best" departSpeed="max" from="262279465" to="414498696#0"/>
    <trip id="veh228" type="veh_passenger" depart="664.18" departLane="best" from="5168924#0" to="-4928836#0"/>
    <trip id="veh229" type="veh_passenger" depart="667.09" departLane="best" from="-939477015#1" to="104422584#4"/>
    <trip id="veh230" type="veh_passenger" depart="670.00" departLane="best" departSpeed="max" from="-8075224" to="-478472521"/>
    <trip id="veh231" type="veh_passenger" depart="672.91" departLane="best" departSpeed="max" from="5155813#0" to="85249004"/>
    <trip id="veh232" type="veh_passenger" depart="675.83" departLane="best" from="1153024461#0" to="45846807"/>
    <trip id="veh233" type="veh_passenger" depart="678.74" departLane="best" departSpeed="max" from="-4576398#2" to="-5012111"/>
    <trip id="veh234" type="veh_passenger" depart="681.65" departLane="best" from="8027254#3" to="411094914#0"/>
    <trip id="veh235" type="veh_passenger" depart="684.57" departLane="best" from="-106286247#0" to="-413104170#3"/>
    <trip id="veh236" type="veh_passenger" depart="687.48" departLane="best" from="13871627#0" to="-330102539#1"/>
    <trip id="veh237" type="veh_passenger" depart="690.39" departLane="best" from="62091754#0" to="-123240453#6"/>
    <trip id="veh238" type="veh_passenger" depart="693.31" departLane="best" from="-104422584#0" to="29106577#0"/>
    <trip id="veh239" type="veh_passenger" depart="696.22" departLane="best" from="123240453#5" to="370439010"/>
    <trip id="veh240" type="veh_passenger" depart="699.13" departLane="best" from="-32844582#0" to="-207169038#1"/>
    <trip id="veh241" type="veh_passenger" depart="702.05" departLane="best" from="-147260598#0" to="-1175947149#2"/>
    <trip id="veh242" type="veh_passenger" depart="704.96" departLane="best" from="-4444703#6" to="-93237627"/>
    <trip id="veh243" type="veh_passenger" depart="707.87" departLane="best" from="-241074261" to="1175947149#1"/>
    <trip id="veh244" type="veh_passenger" depart="710.78" departLane="best" from="417558222" to="5214476#1"/>
    <trip id="veh245" type="veh_passenger" depart="713.70" departLane="best" from="-5029380" to="24819641#1"/>
    <trip id="veh246" type="veh_passenger" depart="716.61" departLane="best" from="1194935198#0" to="262279470#1"/>