<?xml version="1.0" encoding="UTF-8"?>

<!-- generated on 2024-04-23 19:59:33.171681 by osmWebWizard.py v1_19_0+0000-baa66a0f364
<configuration>
    <net-file value="F:\SUMO\OptimalEmission-SUMO-ReinforcementLearning\2024-04-23-19-58-51\osm.net.xml.gz"/>
    <output-trip-file value="F:\SUMO\OptimalEmission-SUMO-ReinforcementLearning\2024-04-23-19-58-51\osm.truck.trips.xml"/>
    <route-file value="F:\SUMO\OptimalEmission-SUMO-ReinforcementLearning\2024-04-23-19-58-51\osm.truck.rou.xml"/>
    <prefix value="truck"/>
    <trip-attributes value="departLane=&quot;best&quot;"/>
    <fringe-start-attributes value="departSpeed=&quot;max&quot;"/>
    <vehicle-class value="truck"/>
    <fringe-factor value="5"/>
    <vclass value="truck"/>
    <via-edge-types value="highway.motorway,highway.motorway_link,highway.trunk_link,highway.primary_link,highway.secondary_link,highway.tertiary_link"/>
    <min-distance value="600.0"/>
    <min-distance.fringe value="10.0"/>
    <remove-loops value="True"/>
    <validate value="True"/>
    <insertion-density value="8.0"/>
</configuration>
-->

<!-- generated on 2024-04-23 19:59:32 by Eclipse SUMO duarouter Version 1.19.0
<configuration xmlns:xsi="http://www.w3.org/2001/XMLSchema-instance" xsi:noNamespaceSchemaLocation="http://sumo.dlr.de/xsd/duarouterConfiguration.xsd">

    <input>
        <net-file value="F:\SUMO\OptimalEmission-SUMO-ReinforcementLearning\2024-04-23-19-58-51\osm.net.xml.gz"/>
        <route-files value="F:\SUMO\OptimalEmission-SUMO-ReinforcementLearning\2024-04-23-19-58-51\osm.truck.trips.xml"/>
    </input>

    <output>
        <output-file value="F:\SUMO\OptimalEmission-SUMO-ReinforcementLearning\2024-04-23-19-58-51\osm.truck.trips.xml.tmp"/>
        <alternatives-output value="NUL"/>
        <write-trips value="true"/>
    </output>

    <processing>
        <remove-loops value="true"/>
    </processing>

    <time>
        <begin value="0.0"/>
        <end value="3600.0"/>
    </time>

    <report>
        <no-warnings value="true"/>
        <ignore-errors value="true"/>
        <no-step-log value="true"/>
    </report>

</configuration>
-->

<routes xmlns:xsi="http://www.w3.org/2001/XMLSchema-instance" xsi:noNamespaceSchemaLocation="http://sumo.dlr.de/xsd/routes_file.xsd">
    <vType id="truck_truck" vClass="truck"/>
    <trip id="truck0" type="truck_truck" depart="0.00" departLane="best" departSpeed="max" from="687858531#0" to="192514353"/>
    <trip id="truck2" type="truck_truck" depart="6.15" departLane="best" departSpeed="max" from="578603834" to="192514353"/>
    <trip id="truck3" type="truck_truck" depart="9.23" departLane="best" departSpeed="max" from="192555671" to="578603838"/>
    <trip id="truck4" type="truck_truck" depart="12.31" departLane="best" departSpeed="max" from="192514354" to="192555670"/>
    <trip id="truck5" type="truck_truck" depart="15.39" departLane="best" departSpeed="max" from="687858531#0" to="578603838"/>
    <trip id="truck6" type="truck_truck" depart="18.46" departLane="best" departSpeed="max" from="192555671" to="687858529"/>
    <trip id="truck7" type="truck_truck" depart="21.54" departLane="best" departSpeed="max" from="813218843" to="192514353"/>
    <trip id="truck8" type="truck_truck" depart="24.62" departLane="best" departSpeed="max" from="578603834" to="192555670"/>
    <trip id="truck11" type="truck_truck" depart="33.85" departLane="best" departSpeed="max" from="687858531#0" to="192514353"/>
    <trip id="truck12" type="truck_truck" depart="36.93" departLane="best" departSpeed="max" from="192555671" to="344480865"/>
    <trip id="truck13" type="truck_truck" depart="40.00" departLane="best" departSpeed="max" from="192514354" to="192555670"/>
    <trip id="truck14" type="truck_truck" depart="43.08" departLane="best" departSpeed="max" from="192514354" to="192555670"/>
    <trip id="truck15" type="truck_truck" depart="46.16" departLane="best" departSpeed="max" from="687858531#0" to="344480865"/>
    <trip id="truck16" type="truck_truck" depart="49.24" departLane="best" departSpeed="max" from="578603834" to="192555670"/>
    <trip id="truck17" type="truck_truck" depart="52.31" departLane="best" departSpeed="max" from="192555671" to="813218842"/>
    <trip id="truck18" type="truck_truck" depart="55.39" departLane="best" departSpeed="max" from="192555671" to="687858532#1"/>
    <trip id="truck19" type="truck_truck" depart="58.47" departLane="best" departSpeed="max" from="192555671" to="344480865"/>
    <trip id="truck20" type="truck_truck" depart="61.54" departLane="best" departSpeed="max" from="578634140" to="687858529"/>
    <trip id="truck21" type="truck_truck" depart="64.62" departLane="best" departSpeed="max" from="192555671" to="192514353"/>
    <trip id="truck22" type="truck_truck" depart="67.70" departLane="best" departSpeed="max" from="578603834" to="192555670"/>
    <trip id="truck23" type="truck_truck" depart="70.78" departLane="best" departSpeed="max" from="192555671" to="813218842"/>
    <trip id="truck25" type="truck_truck" depart="76.93" departLane="best" departSpeed="max" from="687858531#0" to="344480865"/>
    <trip id="truck26" type="truck_truck" depart="80.01" departLane="best" departSpeed="max" from="813219655" to="578603838"/>
    <trip id="truck27" type="truck_truck" depart="83.09" departLane="best" departSpeed="max" from="578634140" to="192555670"/>
    <trip id="truck28" type="truck_truck" depart="86.16" departLane="best" departSpeed="max" from="578603834" to="192555670"/>
    <trip id="truck29" type="truck_truck" depart="89.24" departLane="best" departSpeed="max" from="813219655" to="578603838"/>
    <trip id="truck30" type="truck_truck" depart="92.32" departLane="best" departSpeed="max" from="192514354" to="687858529"/>
    <trip id="truck31" type="truck_truck" depart="95.39" departLane="best" departSpeed="max" from="813218843" to="344480865"/>
    <trip id="truck32" type="truck_truck" depart="98.47" departLane="best" departSpeed="max" from="192514354" to="344480865"/>
    <trip id="truck33" type="truck_truck" depart="101.55" departLane="best" departSpeed="max" from="813219655" to="578603838"/>
    <trip id="truck35" type="truck_truck" depart="107.70" departLane="best" departSpeed="max" from="687858531#0" to="578603838"/>
    <trip id="truck36" type="truck_truck" depart="110.78" departLane="best" departSpeed="max" from="192555671" to="687858529"/>
    <trip id="truck37" type="truck_truck" depart="113.86" departLane="best" departSpeed="max" from="192514354" to="578603838"/>
    <trip id="truck39" type="truck_truck" depart="120.01" departLane="best" departSpeed="max" from="813219655" to="192555670"/>
    <trip id="truck40" type="truck_truck" depart="123.09" departLane="best" departSpeed="max" from="578634140" to="192555670"/>
    <trip id="truck41" type="truck_truck" depart="126.17" departLane="best" departSpeed="max" from="578603834" to="687858529"/>
    <trip id="truck42" type="truck_truck" depart="129.24" departLane="best" departSpeed="max" from="687858531#0" to="192555670"/>
    <trip id="truck43" type="truck_truck" depart="132.32" departLane="best" departSpeed="max" from="813218843" to="578603838"/>
    <trip id="truck44" type="truck_truck" depart="135.40" departLane="best" departSpeed="max" from="813218843" to="578603838"/>
    <trip id="truck45" type="truck_truck" depart="138.48" departLane="best" departSpeed="max" from="192514354" to="344480865"/>
    <trip id="truck47" type="truck_truck" depart="144.63" departLane="best" departSpeed="max" from="578603834" to="192514353"/>
    <trip id="truck48" type="truck_truck" depart="147.71" departLane="best" departSpeed="max" from="192514354" to="578603838"/>
    <trip id="truck50" type="truck_truck" depart="153.86" departLane="best" departSpeed="max" from="813218843" to="192514353"/>
    <trip id="truck51" type="truck_truck" depart="156.94" departLane="best" departSpeed="max" from="578634140" to="578603838"/>
    <trip id="truck52" type="truck_truck" depart="160.02" departLane="best" departSpeed="max" from="192555671" to="813218842"/>
    <trip id="truck53" type="truck_truck" depart="163.09" departLane="best" departSpeed="max" from="578603834" to="192555670"/>
    <trip id="truck55" type="truck_truck" depart="169.25" departLane="best" departSpeed="max" from="192555671" to="344480865"/>
    <trip id="truck56" type="truck_truck" depart="172.33" departLane="best" departSpeed="max" from="578634140" to="578603838"/>
    <trip id="truck57" type="truck_truck" depart="175.40" departLane="best" departSpeed="max" from="192514354" to="192555670"/>
    <trip id="truck58" type="truck_truck" depart="178.48" departLane="best" departSpeed="max" from="578603834" to="687858529"/>
    <trip id="truck59" type="truck_truck" depart="181.56" departLane="best" departSpeed="max" from="192514354" to="687858529"/>
    <trip id="truck60" type="truck_truck" depart="184.63" departLane="best" departSpeed="max" from="192555671" to="813218842"/>
    <trip id="truck62" type="truck_truck" depart="190.79" departLane="best" departSpeed="max" from="192555671" to="687858529"/>
    <trip id="truck63" type="truck_truck" depart="193.87" departLane="best" departSpeed="max" from="192555671" to="192514353"/>
    <trip id="truck64" type="truck_truck" depart="196.94" departLane="best" departSpeed="max" from="813219655" to="578603838"/>
    <trip id="truck66" type="truck_truck" depart="203.10" departLane="best" departSpeed="max" from="813218843" to="192555670"/>
    <trip id="truck67" type="truck_truck" depart="206.18" departLane="best" departSpeed="max" from="192514354" to="578603838"/>
    <trip id="truck69" type="truck_truck" depart="212.33" departLane="best" departSpeed="max" from="578603834" to="344480865"/>
    <trip id="truck70" type="truck_truck" depart="215.41" departLane="best" departSpeed="max" from="813219655" to="192555670"/>
    <trip id="truck71" type="truck_truck" depart="218.48" departLane="best" departSpeed="max" from="192555671" to="578603838"/>
    <trip id="truck72" type="truck_truck" depart="221.56" departLane="best" departSpeed="max" from="578603834" to="192555670"/>
    <trip id="truck73" type="truck_truck" depart="224.64" departLane="best" departSpeed="max" from="192555671" to="813218842"/>
    <trip id="truck75" type="truck_truck" depart="230.79" departLane="best" departSpeed="max" from="578634140" to="192514353"/>
    <trip id="truck76" type="truck_truck" depart="233.87" departLane="best" departSpeed="max" from="813218843" to="192555670"/>
    <trip id="truck77" type="truck_truck" depart="236.95" departLane="best" departSpeed="max" from="578634140" to="192555670"/>
    <trip id="truck78" type="truck_truck" depart="240.02" departLane="best" departSpeed="max" from="578603834" to="192514353"/>
    <trip id="truck79" type="truck_truck" depart="243.10" departLane="best" departSpeed="max" from="578603834" to="813218842"/>
    <trip id="truck80" type="truck_truck" depart="246.18" departLane="best" departSpeed="max" from="192555671" to="687858532#1"/>
    <trip id="truck82" type="truck_truck" depart="252.33" departLane="best" departSpeed="max" from="192555671" to="344480865"/>
    <trip id="truck84" type="truck_truck" depart="258.49" departLane="best" departSpeed="max" from="192514354" to="687858529"/>
    <trip id="truck86" type="truck_truck" depart="264.64" departLane="best" departSpeed="max" from="192555671" to="813218842"/>
    <trip id="truck87" type="truck_truck" depart="267.72" departLane="best" departSpeed="max" from="192514354" to="192555670"/>
    <trip id="truck88" type="truck_truck" depart="270.80" departLane="best" departSpeed="max" from="192555671" to="192514353"/>
    <trip id="truck89" type="truck_truck" depart="273.87" departLane="best" departSpeed="max" from="813219655" to="192555670"/>
    <trip id="truck90" type="truck_truck" depart="276.95" departLane="best" departSpeed="max" from="578603834" to="687858529"/>
    <trip id="truck92" type="truck_truck" depart="283.11" departLane="best" departSpeed="max" from="192555671" to="687858532#1"/>
    <trip id="truck93" type="truck_truck" depart="286.18" departLane="best" departSpeed="max" from="192555671" to="344480865"/>
    <trip id="truck94" type="truck_truck" depart="289.26" departLane="best" departSpeed="max" from="687858531#0" to="344480865"/>
    <trip id="truck95" type="truck_truck" depart="292.34" departLane="best" departSpeed="max" from="578603834" to="687858532#1"/>
    <trip id="truck96" type="truck_truck" depart="295.42" departLane="best" departSpeed="max" from="192514354" to="578603838"/>
    <trip id="truck97" type="truck_truck" depart="298.49" departLane="best" departSpeed="max" from="192514354" to="192555670"/>
    <trip id="truck98" type="truck_truck" depart="301.57" departLane="best" departSpeed="max" from="192555671" to="813218842"/>
    <trip id="truck99" type="truck_truck" depart="304.65" departLane="best" departSpeed="max" from="578603834" to="192555670"/>
    <trip id="truck100" type="truck_truck" depart="307.72" departLane="best" departSpeed="max" from="687858531#0" to="192514353"/>
    <trip id="truck101" type="truck_truck" depart="310.80" departLane="best" departSpeed="max" from="813218843" to="344480865"/>
    <trip id="truck102" type="truck_truck" depart="313.88" departLane="best" departSpeed="max" from="192514354" to="578603838"/>
    <trip id="truck103" type="truck_truck" depart="316.96" departLane="best" departSpeed="max" from="192555671" to="687858529"/>
    <trip id="truck104" type="truck_truck" depart="320.03" departLane="best" departSpeed="max" from="813218843" to="192555670"/>
    <trip id="truck105" type="truck_truck" depart="323.11" departLane="best" departSpeed="max" from="687858531#0" to="192555670"/>
    <trip id="truck107" type="truck_truck" depart="329.27" departLane="best" departSpeed="max" from="813218843" to="192514353"/>
    <trip id="truck108" type="truck_truck" depart="332.34" departLane="best" departSpeed="max" from="578603834" to="192555670"/>
    <trip id="truck110" type="truck_truck" depart="338.50" departLane="best" departSpeed="max" from="687858531#0" to="192555670"/>
    <trip id="truck111" type="truck_truck" depart="341.57" departLane="best" departSpeed="max" from="813218843" to="578603838"/>
    <trip id="truck112" type="truck_truck" depart="344.65" departLane="best" departSpeed="max" from="578603834" to="192514353"/>
    <trip id="truck114" type="truck_truck" depart="350.81" departLane="best" departSpeed="max" from="813219655" to="578603838"/>
    <trip id="truck115" type="truck_truck" depart="353.88" departLane="best" departSpeed="max" from="192555671" to="192514353"/>
    <trip id="truck116" type="truck_truck" depart="356.96" departLane="best" departSpeed="max" from="578603834" to="813218842"/>
    <trip id="truck117" type="truck_truck" depart="360.04" departLane="best" departSpeed="max" from="813219655" to="192555670"/>
    <trip id="truck118" type="truck_truck" depart="363.11" departLane="best" departSpeed="max" from="192555671" to="192514353"/>
    <trip id="truck119" type="truck_truck" depart="366.19" departLane="best" departSpeed="max" from="578603834" to="687858529"/>
    <trip id="truck120" type="truck_truck" depart="369.27" departLane="best" departSpeed="max" from="192555671" to="813218842"/>
    <trip id="truck122" type="truck_truck" depart="375.42" departLane="best" departSpeed="max" from="578603834" to="813218842"/>
    <trip id="truck123" type="truck_truck" depart="378.50" departLane="best" departSpeed="max" from="813218843" to="192555670"/>
    <trip id="truck124" type="truck_truck" depart="381.58" departLane="best" departSpeed="max" from="813218843" to="192514353"/>
    <trip id="truck125" type="truck_truck" depart="384.66" departLane="best" departSpeed="max" from="192555671" to="687858532#1"/>
    <trip id="truck126" type="truck_truck" depart="387.73" departLane="best" departSpeed="max" from="813218843" to="192555670"/>
    <trip id="truck127" type="truck_truck" depart="390.81" departLane="best" departSpeed="max" from="192514354" to="192555670"/>
    <trip id="truck128" type="truck_truck" depart="393.89" departLane="best" departSpeed="max" from="578603834" to="813218842"/>
    <trip id="truck129" type="truck_truck" depart="396.96" departLane="best" departSpeed="max" from="813219655" to="192555670"/>
    <trip id="truck130" type="truck_truck" depart="400.04" departLane="best" departSpeed="max" from="687858531#0" to="344480865"/>
    <trip id="truck131" type="truck_truck" depart="403.12" departLane="best" departSpeed="max" from="813219655" to="578603838"/>
    <trip id="truck133" type="truck_truck" depart="409.27" departLane="best" departSpeed="max" from="813219655" to="192555670"/>
    <trip id="truck134" type="truck_truck" depart="412.35" departLane="best" departSpeed="max" from="813219655" to="192555670"/>
    <trip id="truck135" type="truck_truck" depart="415.43" departLane="best" departSpeed="max" from="192514354" to="578603838"/>
    <trip id="truck136" type="truck_truck" depart="418.51" departLane="best" departSpeed="max" from="813218843" to="344480865"/>
    <trip id="truck137" type="truck_truck" depart="421.58" departLane="best" departSpeed="max" from="687858531#0" to="578603838"/>
    <trip id="truck138" type="truck_truck" depart="424.66" departLane="best" departSpeed="max" from="578603834" to="687858529"/>
    <trip id="truck139" type="truck_truck" depart="427.74" departLane="best" departSpeed="max" from="192555671" to="687858529"/>
    <trip id="truck142" type="truck_truck" depart="436.97" departLane="best" departSpeed="max" from="578603834" to="192514353"/>
    <trip id="truck143" type="truck_truck" depart="440.05" departLane="best" departSpeed="max" from="687858531#0" to="344480865"/>
    <trip id="truck144" type="truck_truck" depart="443.12" departLane="best" departSpeed="max" from="578603834" to="687858532#1"/>
    <trip id="truck145" type="truck_truck" depart="446.20" departLane="best" departSpeed="max" from="813218843" to="344480865"/>
    <trip id="truck146" type="truck_truck" depart="449.28" departLane="best" departSpeed="max" from="578603834" to="344480865"/>
    <trip id="truck147" type="truck_truck" depart="452.35" departLane="best" departSpeed="max" from="578603834" to="344480865"/>
    <trip id="truck148" type="truck_truck" depart="455.43" departLane="best" departSpeed="max" from="192514354" to="344480865"/>
    <trip id="truck149" type="truck_truck" depart="458.51" departLane="best" departSpeed="max" from="192514354" to="344480865"/>
    <trip id="truck150" type="truck_truck" depart="461.59" departLane="best" departSpeed="max" from="578634140" to="687858529"/>
    <trip id="truck151" type="truck_truck" depart="464.66" departLane="best" departSpeed="max" from="687858531#0" to="578603838"/>
    <trip id="truck152" type="truck_truck" depart="467.74" departLane="best" departSpeed="max" from="578634140" to="192555670"/>
    <trip id="truck154" type="truck_truck" depart="473.90" departLane="best" departSpeed="max" from="813218843" to="192555670"/>
    <trip id="truck155" type="truck_truck" depart="476.97" departLane="best" departSpeed="max" from="192514354" to="578603838"/>
    <trip id="truck156" type="truck_truck" depart="480.05" departLane="best" departSpeed="max" from="687858531#0" to="344480865"/>
    <trip id="truck157" type="truck_truck" depart="483.13" departLane="best" departSpeed="max" from="687858531#0" to="192555670"/>
    <trip id="truck158" type="truck_truck" depart="486.20" departLane="best" departSpeed="max" from="192555671" to="192514353"/>
    <trip id="truck159" type="truck_truck" depart="489.28" departLane="best" departSpeed="max" from="192555671" to="578603838"/>
    <trip id="truck160" type="truck_truck" depart="492.36" departLane="best" departSpeed="max" from="813218843" to="192514353"/>
    <trip id="truck161" type="truck_truck" depart="495.44" departLane="best" departSpeed="max" from="578603834" to="687858529"/>
    <trip id="truck162" type="truck_truck" depart="498.51" departLane="best" departSpeed="max" from="192555671" to="687858529"/>
    <trip id="truck163" type="truck_truck" depart="501.59" departLane="best" departSpeed="max" from="578634140" to="192555670"/>
    <trip id="truck164" type="truck_truck" depart="504.67" departLane="best" departSpeed="max" from="687858531#0" to="192514353"/>
    <trip id="truck165" type="truck_truck" depart="507.75" departLane="best" departSpeed="max" from="192514354" to="344480865"/>
    <trip id="truck166" type="truck_truck" depart="510.82" departLane="best" departSpeed="max" from="192555671" to="813218842"/>
    <trip id="truck167" type="truck_truck" depart="513.90" departLane="best" departSpeed="max" from="578634140" to="192514353"/>
    <trip id="truck168" type="truck_truck" depart="516.98" departLane="best" departSpeed="max" from="192555671" to="687858532#1"/>
    <trip id="truck170" type="truck_truck" depart="523.13" departLane="best" departSpeed="max" from="813218843" to="578603838"/>
    <trip id="truck171" type="truck_truck" depart="526.21" departLane="best" departSpeed="max" from="813218843" to="578603838"/>
    <trip id="truck172" type="truck_truck" depart="529.29" departLane="best" departSpeed="max" from="578634140" to="192555670"/>
    <trip id="truck173" type="truck_truck" depart="532.36" departLane="best" departSpeed="max" from="192555671" to="687858529"/>
    <trip id="truck174" type="truck_truck" depart="535.44" departLane="best" departSpeed="max" from="813218843" to="578603838"/>
    <trip id="truck175" type="truck_truck" depart="538.52" departLane="best" departSpeed="max" from="687858531#0" to="192555670"/>
    <trip id="truck176" type="truck_truck" depart="541.59" departLane="best" departSpeed="max" from="192514354" to="344480865"/>
    <trip id="truck177" type="truck_truck" depart="544.67" departLane="best" departSpeed="max" from="192555671" to="344480865"/>
    <trip id="truck178" type="truck_truck" depart="547.75" departLane="best" departSpeed="max" from="578634140" to="192514353"/>
    <trip id="truck179" type="truck_truck" depart="550.83" departLane="best" departSpeed="max" from="192555671" to="687858529"/>
    <trip id="truck180" type="truck_truck" depart="553.90" departLane="best" departSpeed="max" from="687858531#0" to="192514353"/>
    <trip id="truck181" type="truck_truck" depart="556.98" departLane="best" departSpeed="max" from="578603834" to="192555670"/>
    <trip id="truck182" type="truck_truck" depart="560.06" departLane="best" departSpeed="max" from="578603834" to="813218842"/>
    <trip id="truck183" type="truck_truck" depart="563.14" departLane="best" departSpeed="max" from="578603834" to="192514353"/>
    <trip id="truck184" type="truck_truck" depart="566.21" departLane="best" departSpeed="max" from="578603834" to="687858532#1"/>
    <trip id="truck185" type="truck_truck" depart="569.29" departLane="best" departSpeed="max" from="578603834" to="687858532#1"/>
    <trip id="truck186" type="truck_truck" depart="572.37" departLane="best" departSpeed="max" from="578634140" to="687858529"/>
    <trip id="truck187" type="truck_truck" depart="575.44" departLane="best" departSpeed="max" from="578634140" to="192514353"/>
    <trip id="truck188" type="truck_truck" depart="578.52" departLane="best" departSpeed="max" from="578603834" to="687858529"/>
    <trip id="truck189" type="truck_truck" depart="581.60" departLane="best" departSpeed="max" from="578603834" to="192555670"/>
    <trip id="truck190" type="truck_truck" depart="584.68" departLane="best" departSpeed="max" from="578634140" to="192514353"/>
    <trip id="truck191" type="truck_truck" depart="587.75" departLane="best" departSpeed="max" from="687858531#0" to="192514353"/>
    <trip id="truck192" type="truck_truck" depart="590.83" departLane="best" departSpeed="max" from="192514354" to="687858529"/>
    <trip id="truck193" type="truck_truck" depart="593.91" departLane="best" departSpeed="max" from="192514354" to="578603838"/>
    <trip id="truck194" type="truck_truck" depart="596.99" departLane="best" departSpeed="max" from="192514354" to="344480865"/>
    <trip id="truck195" type="truck_truck" depart="600.06" departLane="best" departSpeed="max" from="192555671" to="344480865"/>
    <trip id="truck196" type="truck_truck" depart="603.14" departLane="best" departSpeed="max" from="813218843" to="344480865"/>
    <trip id="truck197" type="truck_truck" depart="606.22" departLane="best" departSpeed="max" from="192555671" to="192514353"/>
    <trip id="truck198" type="truck_truck" depart="609.29" departLane="best" departSpeed="max" from="192514354" to="578603838"/>
    <trip id="truck200" type="truck_truck" depart="615.45" departLane="best" departSpeed="max" from="813219655" to="192555670"/>
    <trip id="truck201" type="truck_truck" depart="618.53" departLane="best" departSpeed="max" from="192514354" to="192555670"/>
    <trip id="truck202" type="truck_truck" depart="621.60" departLane="best" departSpeed="max" from="192514354" to="687858529"/>
    <trip id="truck203" type="truck_truck" depart="624.68" departLane="best" departSpeed="max" from="578634140" to="192555670"/>
    <trip id="truck204" type="truck_truck" depart="627.76" departLane="best" departSpeed="max" from="192555671" to="687858529"/>
    <trip id="truck205" type="truck_truck" depart="630.83" departLane="best" departSpeed="max" from="813218843" to="192514353"/>
    <trip id="truck206" type="truck_truck" depart="633.91" departLane="best" departSpeed="max" from="578603834" to="687858529"/>
    <trip id="truck208" type="truck_truck" depart="640.07" departLane="best" departSpeed="max" from="813218843" to="192514353"/>
    <trip id="truck211" type="truck_truck" depart="649.30" departLane="best" departSpeed="max" from="813218843" to="344480865"/>
    <trip id="truck212" type="truck_truck" depart="652.38" departLane="best" departSpeed="max" from="578603834" to="344480865"/>
    <trip id="truck214" type="truck_truck" depart="658.53" departLane="best" departSpeed="max" from="687858531#0" to="578603838"/>
    <trip id="truck215" type="truck_truck" depart="661.61" departLane="best" departSpeed="max" from="192555671" to="687858532#1"/>
    <trip id="truck216" type="truck_truck" depart="664.68" departLane="best" departSpeed="max" from="578634140" to="578603838"/>
    <trip id="truck218" type="truck_truck" depart="670.84" departLane="best" departSpeed="max" from="192555671" to="687858532#1"/>
    <trip id="truck219" type="truck_truck" depart="673.92" departLane="best" departSpeed="max" from="813218843" to="192514353"/>
    <trip id="truck220" type="truck_truck" depart="676.99" departLane="best" departSpeed="max" from="813219655" to="192555670"/>
    <trip id="truck221" type="truck_truck" depart="680.07" departLane="best" departSpeed="max" from="578634140" to="687858529"/>
    <trip id="truck222" type="truck_truck" depart="683.15" departLane="best" departSpeed="max" from="578603834" to="192514353"/>
    <trip id="truck223" type="truck_truck" depart="686.23" departLane="best" departSpeed="max" from="813218843" to="192555670"/>
    <trip id="truck224" type="truck_truck" depart="689.30" departLane="best" departSpeed="max" from="192555671" to="687858532#1"/>
    <trip id="truck225" type="truck_truck" depart="692.38" departLane="best" departSpeed="max" from="578603834" to="813218842"/>
    <trip id="truck226" type="truck_truck" depart="695.46" departLane="best" departSpeed="max" from="687858531#0" to="192555670"/>
    <trip id="truck231" type="truck_truck" depart="710.84" departLane="best" departSpeed="max" from="192514354" to="192555670"/>
    <trip id="truck232" type="truck_truck" depart="713.92" departLane="best" departSpeed="max" from="687858531#0" to="344480865"/>
    <trip id="truck233" type="truck_truck" depart="717.00" departLane="best" departSpeed="max" from="687858531#0" to="578603838"/>
    <trip id="truck234" type="truck_truck" depart="720.07" departLane="best" departSpeed="max" from="813218843" to="344480865"/>
    <trip id="truck235" type="truck_truck" depart="723.15" departLane="best" departSpeed="max" from="687858531#0" to="192555670"/>
    <trip id="truck236" type="truck_truck" depart="726.23" departLane="best" departSpeed="max" from="192555671" to="192514353"/>
    <trip id="truck237" type="truck_truck" depart="729.31" departLane="best" departSpeed="max" from="192555671" to="192514353"/>
    <trip id="truck240" type="truck_truck" depart="738.54" departLane="best" departSpeed="max" from="813219655" to="578603838"/>
    <trip id="truck241" type="truck_truck" depart="741.62" departLane="best" departSpeed="max" from="192555671" to="192514353"/>
    <trip id="truck242" type="truck_truck" depart="744.69" departLane="best" departSpeed="max" from="192555671" to="192514353"/>
    <trip id="truck243" type="truck_truck" depart="747.77" departLane="best" departSpeed="max" from="578634140" to="192555670"/>
    <trip id="truck244" type="truck_truck" depart="750.85" departLane="best" departSpeed="max" from="813219655" to="578603838"/>
    <trip id="truck245" type="truck_truck" depart="753.92" departLane="best" departSpeed="max" from="687858531#0" to="192514353"/>
    <trip id="truck246" type="truck_truck" depart="757.00" departLane="best" departSpeed="max" from="813219655" to="578603838"/>
    <trip id="truck247" type="truck_truck" depart="760.08" departLane="best" departSpeed="max" from="578634140" to="578603838"/>
    <trip id="truck248" type="truck_truck" depart="763.16" departLane="best" departSpeed="max" from="192555671" to="192514353"/>
    <trip id="truck249" type="truck_truck" depart="766.23" departLane="best" departSpeed="max" from="813219655" to="578603838"/>
    <trip id="truck250" type="truck_truck" depart="769.31" departLane="best" departSpeed="max" from="813218843" to="344480865"/>
    <trip id="truck251" type="truck_truck" depart="772.39" departLane="best" departSpeed="max" from="192514354" to="687858529"/>