<?xml version="1.0" encoding="UTF-8"?>

<!-- generated on 2024-04-23 19:59:28.329319 by osmWebWizard.py v1_19_0+0000-baa66a0f364
<configuration>
    <net-file value="F:\SUMO\OptimalEmission-SUMO-ReinforcementLearning\2024-04-23-19-58-51\osm.net.xml.gz"/>
    <output-trip-file value="F:\SUMO\OptimalEmission-SUMO-ReinforcementLearning\2024-04-23-19-58-51\osm.passenger.trips.xml"/>
    <route-file value="F:\SUMO\OptimalEmission-SUMO-ReinforcementLearning\2024-04-23-19-58-51\osm.passenger.rou.xml"/>
    <prefix value="veh"/>
    <trip-attributes value="departLane=&quot;best&quot;"/>
    <fringe-start-attributes value="departSpeed=&quot;max&quot;"/>
    <vehicle-class value="passenger"/>
    <lanes value="True"/>
    <fringe-factor value="5"/>
    <allow-fringe.min-length value="1000.0"/>
    <via-edge-types value="highway.motorway,highway.motorway_link,highway.trunk_link,highway.primary_link,highway.secondary_link,highway.tertiary_link"/>
    <min-distance value="300.0"/>
    <min-distance.fringe value="10.0"/>
    <remove-loops value="True"/>
    <validate value="True"/>
    <insertion-density value="12.0"/>
</configuration>
-->

<!-- generated on 2024-04-23 19:59:28 by Eclipse SUMO duarouter Version 1.19.0
<configuration xmlns:xsi="http://www.w3.org/2001/XMLSchema-instance" xsi:noNamespaceSchemaLocation="http://sumo.dlr.de/xsd/duarouterConfiguration.xsd">

    <input>
        <net-file value="F:\SUMO\OptimalEmission-SUMO-ReinforcementLearning\2024-04-23-19-58-51\osm.net.xml.gz"/>
        <route-files value="F:\SUMO\OptimalEmission-SUMO-ReinforcementLearning\2024-04-23-19-58-51\osm.passenger.trips.xml"/>
    </input>

    <output>
        <output-file value="F:\SUMO\OptimalEmission-SUMO-ReinforcementLearning\2024-04-23-19-58-51\osm.passenger.trips.xml.tmp"/>
        <alternatives-output value="NUL"/>
        <write-trips value="true"/>
    </output>

    <processing>
        <remove-loops value="true"/>
    </processing>

    <time>
        <begin value="0.0"/>
        <end value="3600.0"/>
    </time>

    <report>
        <no-warnings value="true"/>
        <ignore-errors value="true"/>
        <no-step-log value="true"/>
    </report>

</configuration>
-->

<routes xmlns:xsi="http://www.w3.org/2001/XMLSchema-instance" xsi:noNamespaceSchemaLocation="http://sumo.dlr.de/xsd/routes_file.xsd">
    <vType id="veh_passenger" vClass="passenger"/>
    <trip id="veh0" type="veh_passenger" depart="0.00" departLane="best" departSpeed="max" from="578634140" to="192514353"/>
    <trip id="veh1" type="veh_passenger" depart="2.05" departLane="best" departSpeed="max" from="578603834" to="344480865"/>
    <trip id="veh3" type="veh_passenger" depart="6.15" departLane="best" departSpeed="max" from="578603834" to="192514353"/>
    <trip id="veh4" type="veh_passenger" depart="8.21" departLane="best" departSpeed="max" from="192555671" to="578603838"/>
    <trip id="veh5" type="veh_passenger" depart="10.26" departLane="best" departSpeed="max" from="192514354" to="192555670"/>
    <trip id="veh6" type="veh_passenger" depart="12.31" departLane="best" departSpeed="max" from="578634140" to="578603838"/>
    <trip id="veh7" type="veh_passenger" depart="14.36" departLane="best" departSpeed="max" from="192555671" to="578603838"/>
    <trip id="veh8" type="veh_passenger" depart="16.41" departLane="best" departSpeed="max" from="813218843" to="192514353"/>
    <trip id="veh9" type="veh_passenger" depart="18.46" departLane="best" departSpeed="max" from="578603834" to="192555670"/>
    <trip id="veh11" type="veh_passenger" depart="22.57" departLane="best" departSpeed="max" from="813218843" to="578603838"/>
    <trip id="veh13" type="veh_passenger" depart="26.67" departLane="best" departSpeed="max" from="813218843" to="578603838"/>
    <trip id="veh14" type="veh_passenger" depart="28.72" departLane="best" departSpeed="max" from="813218843" to="578603838"/>
    <trip id="veh15" type="veh_passenger" depart="30.77" departLane="best" departSpeed="max" from="687858531#0" to="192514353"/>
    <trip id="veh16" type="veh_passenger" depart="32.82" departLane="best" departSpeed="max" from="578603834" to="344480865"/>
    <trip id="veh17" type="veh_passenger" depart="34.88" departLane="best" departSpeed="max" from="192514354" to="344480865"/>
    <trip id="veh18" type="veh_passenger" depart="36.93" departLane="best" departSpeed="max" from="192514354" to="344480865"/>
    <trip id="veh19" type="veh_passenger" depart="38.98" departLane="best" departSpeed="max" from="578603834" to="192555670"/>
    <trip id="veh20" type="veh_passenger" depart="41.03" departLane="best" departSpeed="max" from="578603834" to="813218842"/>
    <trip id="veh21" type="veh_passenger" depart="43.08" departLane="best" departSpeed="max" from="578634140" to="578603838"/>
    <trip id="veh22" type="veh_passenger" depart="45.13" departLane="best" departSpeed="max" from="192555671" to="687858529"/>
    <trip id="veh23" type="veh_passenger" depart="47.18" departLane="best" departSpeed="max" from="192555671" to="344480865"/>
    <trip id="veh24" type="veh_passenger" depart="49.24" departLane="best" departSpeed="max" from="813219655" to="578603838"/>
    <trip id="veh25" type="veh_passenger" depart="51.29" departLane="best" departSpeed="max" from="578634140" to="687858529"/>
    <trip id="veh26" type="veh_passenger" depart="53.34" departLane="best" departSpeed="max" from="578603834" to="192514353"/>
    <trip id="veh27" type="veh_passenger" depart="55.39" departLane="best" departSpeed="max" from="578603834" to="344480865"/>
    <trip id="veh28" type="veh_passenger" depart="57.44" departLane="best" departSpeed="max" from="192555671" to="813218842"/>
    <trip id="veh29" type="veh_passenger" depart="59.49" departLane="best" departSpeed="max" from="813218843" to="344480865"/>
    <trip id="veh30" type="veh_passenger" depart="61.54" departLane="best" departSpeed="max" from="813219655" to="578603838"/>
    <trip id="veh31" type="veh_passenger" depart="63.60" departLane="best" departSpeed="max" from="578603834" to="344480865"/>
    <trip id="veh33" type="veh_passenger" depart="67.70" departLane="best" departSpeed="max" from="578603834" to="192555670"/>
    <trip id="veh34" type="veh_passenger" depart="69.75" departLane="best" departSpeed="max" from="813219655" to="578603838"/>
    <trip id="veh35" type="veh_passenger" depart="71.80" departLane="best" departSpeed="max" from="192514354" to="578603838"/>
    <trip id="veh36" type="veh_passenger" depart="73.85" departLane="best" departSpeed="max" from="813218843" to="344480865"/>
    <trip id="veh37" type="veh_passenger" depart="75.91" departLane="best" departSpeed="max" from="192514354" to="344480865"/>
    <trip id="veh38" type="veh_passenger" depart="77.96" departLane="best" departSpeed="max" from="813219655" to="578603838"/>
    <trip id="veh39" type="veh_passenger" depart="80.01" departLane="best" departSpeed="max" from="192514354" to="687858529"/>
    <trip id="veh40" type="veh_passenger" depart="82.06" departLane="best" departSpeed="max" from="687858531#0" to="578603838"/>
    <trip id="veh41" type="veh_passenger" depart="84.11" departLane="best" departSpeed="max" from="192555671" to="344480865"/>
    <trip id="veh43" type="veh_passenger" depart="88.21" departLane="best" departSpeed="max" from="813218843" to="344480865"/>
    <trip id="veh44" type="veh_passenger" depart="90.27" departLane="best" departSpeed="max" from="578634140" to="192555670"/>
    <trip id="veh45" type="veh_passenger" depart="92.32" departLane="best" departSpeed="max" from="578634140" to="192555670"/>
    <trip id="veh46" type="veh_passenger" depart="94.37" departLane="best" departSpeed="max" from="687858531#0" to="578603838"/>
    <trip id="veh47" type="veh_passenger" depart="96.42" departLane="best" departSpeed="max" from="813218843" to="578603838"/>
    <trip id="veh48" type="veh_passenger" depart="98.47" departLane="best" departSpeed="max" from="192514354" to="344480865"/>
    <trip id="veh50" type="veh_passenger" depart="102.57" departLane="best" departSpeed="max" from="578603834" to="192514353"/>
    <trip id="veh51" type="veh_passenger" depart="104.63" departLane="best" departSpeed="max" from="192514354" to="578603838"/>
    <trip id="veh52" type="veh_passenger" depart="106.68" departLane="best" departSpeed="max" from="192514354" to="687858529"/>
    <trip id="veh53" type="veh_passenger" depart="108.73" departLane="best" departSpeed="max" from="687858531#0" to="192555670"/>
    <trip id="veh54" type="veh_passenger" depart="110.78" departLane="best" departSpeed="max" from="578634140" to="578603838"/>
    <trip id="veh55" type="veh_passenger" depart="112.83" departLane="best" departSpeed="max" from="578603834" to="687858532#1"/>
    <trip id="veh56" type="veh_passenger" depart="114.88" departLane="best" departSpeed="max" from="578603834" to="192555670"/>
    <trip id="veh57" type="veh_passenger" depart="116.94" departLane="best" departSpeed="max" from="578634140" to="687858529"/>
    <trip id="veh58" type="veh_passenger" depart="118.99" departLane="best" departSpeed="max" from="192555671" to="344480865"/>
    <trip id="veh59" type="veh_passenger" depart="121.04" departLane="best" departSpeed="max" from="813219655" to="578603838"/>
    <trip id="veh60" type="veh_passenger" depart="123.09" departLane="best" departSpeed="max" from="192555671" to="344480865"/>
    <trip id="veh61" type="veh_passenger" depart="125.14" departLane="best" departSpeed="max" from="578603834" to="192555670"/>
    <trip id="veh62" type="veh_passenger" depart="127.19" departLane="best" departSpeed="max" from="192514354" to="578603838"/>
    <trip id="veh63" type="veh_passenger" depart="129.24" departLane="best" departSpeed="max" from="578603834" to="813218842"/>
    <trip id="veh64" type="veh_passenger" depart="131.30" departLane="best" departSpeed="max" from="813218843" to="192514353"/>
    <trip id="veh65" type="veh_passenger" depart="133.35" departLane="best" departSpeed="max" from="578603834" to="687858529"/>
    <trip id="veh66" type="veh_passenger" depart="135.40" departLane="best" departSpeed="max" from="813219655" to="578603838"/>
    <trip id="veh68" type="veh_passenger" depart="139.50" departLane="best" departSpeed="max" from="813218843" to="192555670"/>
    <trip id="veh69" type="veh_passenger" depart="141.55" departLane="best" departSpeed="max" from="192514354" to="344480865"/>
    <trip id="veh71" type="veh_passenger" depart="145.66" departLane="best" departSpeed="max" from="578603834" to="344480865"/>
    <trip id="veh72" type="veh_passenger" depart="147.71" departLane="best" departSpeed="max" from="813218843" to="344480865"/>
    <trip id="veh73" type="veh_passenger" depart="149.76" departLane="best" departSpeed="max" from="192555671" to="578603838"/>
    <trip id="veh74" type="veh_passenger" depart="151.81" departLane="best" departSpeed="max" from="578603834" to="344480865"/>
    <trip id="veh75" type="veh_passenger" depart="153.86" departLane="best" departSpeed="max" from="578603834" to="813218842"/>
    <trip id="veh76" type="veh_passenger" depart="155.91" departLane="best" departSpeed="max" from="578603834" to="687858532#1"/>
    <trip id="veh77" type="veh_passenger" depart="157.97" departLane="best" departSpeed="max" from="578634140" to="192514353"/>
    <trip id="veh78" type="veh_passenger" depart="160.02" departLane="best" departSpeed="max" from="813218843" to="192555670"/>
    <trip id="veh79" type="veh_passenger" depart="162.07" departLane="best" departSpeed="max" from="578634140" to="192555670"/>
    <trip id="veh80" type="veh_passenger" depart="164.12" departLane="best" departSpeed="max" from="578603834" to="192514353"/>
    <trip id="veh81" type="veh_passenger" depart="166.17" departLane="best" departSpeed="max" from="578603834" to="813218842"/>
    <trip id="veh82" type="veh_passenger" depart="168.22" departLane="best" departSpeed="max" from="578603834" to="687858532#1"/>
    <trip id="veh83" type="veh_passenger" depart="170.27" departLane="best" departSpeed="max" from="578634140" to="687858529"/>
    <trip id="veh84" type="veh_passenger" depart="172.33" departLane="best" departSpeed="max" from="192555671" to="344480865"/>
    <trip id="veh85" type="veh_passenger" depart="174.38" departLane="best" departSpeed="max" from="813219655" to="578603838"/>
    <trip id="veh86" type="veh_passenger" depart="176.43" departLane="best" departSpeed="max" from="578634140" to="687858529"/>
    <trip id="veh87" type="veh_passenger" depart="178.48" departLane="best" departSpeed="max" from="192514354" to="578603838"/>
    <trip id="veh89" type="veh_passenger" depart="182.58" departLane="best" departSpeed="max" from="192555671" to="813218842"/>
    <trip id="veh90" type="veh_passenger" depart="184.63" departLane="best" departSpeed="max" from="192514354" to="192555670"/>
    <trip id="veh91" type="veh_passenger" depart="186.69" departLane="best" departSpeed="max" from="578634140" to="687858529"/>
    <trip id="veh92" type="veh_passenger" depart="188.74" departLane="best" departSpeed="max" from="578603834" to="192555670"/>
    <trip id="veh94" type="veh_passenger" depart="192.84" departLane="best" departSpeed="max" from="578634140" to="578603838"/>
    <trip id="veh96" type="veh_passenger" depart="196.94" departLane="best" departSpeed="max" from="192555671" to="687858529"/>
    <trip id="veh97" type="veh_passenger" depart="199.00" departLane="best" departSpeed="max" from="578603834" to="344480865"/>
    <trip id="veh98" type="veh_passenger" depart="201.05" departLane="best" departSpeed="max" from="687858531#0" to="344480865"/>
    <trip id="veh99" type="veh_passenger" depart="203.10" departLane="best" departSpeed="max" from="578603834" to="687858529"/>
    <trip id="veh100" type="veh_passenger" depart="205.15" departLane="best" departSpeed="max" from="192514354" to="578603838"/>
    <trip id="veh101" type="veh_passenger" depart="207.20" departLane="best" departSpeed="max" from="192514354" to="192555670"/>
    <trip id="veh102" type="veh_passenger" depart="209.25" departLane="best" departSpeed="max" from="578603834" to="813218842"/>
    <trip id="veh103" type="veh_passenger" depart="211.30" departLane="best" departSpeed="max" from="578603834" to="192555670"/>
    <trip id="veh105" type="veh_passenger" depart="215.41" departLane="best" departSpeed="max" from="578634140" to="192514353"/>
    <trip id="veh106" type="veh_passenger" depart="217.46" departLane="best" departSpeed="max" from="813218843" to="344480865"/>
    <trip id="veh108" type="veh_passenger" depart="221.56" departLane="best" departSpeed="max" from="192514354" to="578603838"/>
    <trip id="veh109" type="veh_passenger" depart="223.61" departLane="best" departSpeed="max" from="687858531#0" to="192555670"/>
    <trip id="veh111" type="veh_passenger" depart="227.72" departLane="best" departSpeed="max" from="813218843" to="192514353"/>
    <trip id="veh112" type="veh_passenger" depart="229.77" departLane="best" departSpeed="max" from="578603834" to="344480865"/>
    <trip id="veh113" type="veh_passenger" depart="231.82" departLane="best" departSpeed="max" from="192514354" to="687858529"/>
    <trip id="veh114" type="veh_passenger" depart="233.87" departLane="best" departSpeed="max" from="687858531#0" to="578603838"/>
    <trip id="veh115" type="veh_passenger" depart="235.92" departLane="best" departSpeed="max" from="578603834" to="192514353"/>
    <trip id="veh117" type="veh_passenger" depart="240.02" departLane="best" departSpeed="max" from="813219655" to="578603838"/>
    <trip id="veh118" type="veh_passenger" depart="242.08" departLane="best" departSpeed="max" from="813218843" to="578603838"/>
    <trip id="veh119" type="veh_passenger" depart="244.13" departLane="best" departSpeed="max" from="578603834" to="813218842"/>
    <trip id="veh120" type="veh_passenger" depart="246.18" departLane="best" departSpeed="max" from="813219655" to="192555670"/>
    <trip id="veh121" type="veh_passenger" depart="248.23" departLane="best" departSpeed="max" from="578603834" to="192514353"/>
    <trip id="veh122" type="veh_passenger" depart="250.28" departLane="best" departSpeed="max" from="192555671" to="813218842"/>
    <trip id="veh123" type="veh_passenger" depart="252.33" departLane="best" departSpeed="max" from="192514354" to="687858529"/>
    <trip id="veh124" type="veh_passenger" depart="254.39" departLane="best" departSpeed="max" from="578603834" to="813218842"/>
    <trip id="veh125" type="veh_passenger" depart="256.44" departLane="best" departSpeed="max" from="813218843" to="344480865"/>
    <trip id="veh126" type="veh_passenger" depart="258.49" departLane="best" departSpeed="max" from="813218843" to="192514353"/>
    <trip id="veh127" type="veh_passenger" depart="260.54" departLane="best" departSpeed="max" from="578603834" to="687858532#1"/>
    <trip id="veh128" type="veh_passenger" depart="262.59" departLane="best" departSpeed="max" from="813218843" to="344480865"/>
    <trip id="veh129" type="veh_passenger" depart="264.64" departLane="best" departSpeed="max" from="192514354" to="192555670"/>
    <trip id="veh130" type="veh_passenger" depart="266.69" departLane="best" departSpeed="max" from="578603834" to="687858532#1"/>
    <trip id="veh132" type="veh_passenger" depart="270.80" departLane="best" departSpeed="max" from="813219655" to="578603838"/>
    <trip id="veh133" type="veh_passenger" depart="272.85" departLane="best" departSpeed="max" from="813219655" to="192555670"/>
    <trip id="veh134" type="veh_passenger" depart="274.90" departLane="best" departSpeed="max" from="813219655" to="192555670"/>
    <trip id="veh136" type="veh_passenger" depart="279.00" departLane="best" departSpeed="max" from="192514354" to="344480865"/>
    <trip id="veh137" type="veh_passenger" depart="281.05" departLane="best" departSpeed="max" from="687858531#0" to="344480865"/>
    <trip id="veh138" type="veh_passenger" depart="283.11" departLane="best" departSpeed="max" from="578634140" to="578603838"/>
    <trip id="veh139" type="veh_passenger" depart="285.16" departLane="best" departSpeed="max" from="578603834" to="687858529"/>
    <trip id="veh141" type="veh_passenger" depart="289.26" departLane="best" departSpeed="max" from="578634140" to="687858529"/>
    <trip id="veh142" type="veh_passenger" depart="291.31" departLane="best" departSpeed="max" from="578603834" to="192514353"/>
    <trip id="veh143" type="veh_passenger" depart="293.36" departLane="best" departSpeed="max" from="578603834" to="687858532#1"/>
    <trip id="veh144" type="veh_passenger" depart="295.42" departLane="best" departSpeed="max" from="687858531#0" to="344480865"/>
    <trip id="veh145" type="veh_passenger" depart="297.47" departLane="best" departSpeed="max" from="578603834" to="344480865"/>
    <trip id="veh146" type="veh_passenger" depart="299.52" departLane="best" departSpeed="max" from="578603834" to="344480865"/>
    <trip id="veh147" type="veh_passenger" depart="301.57" departLane="best" departSpeed="max" from="192555671" to="344480865"/>
    <trip id="veh148" type="veh_passenger" depart="303.62" departLane="best" departSpeed="max" from="813219655" to="578603838"/>
    <trip id="veh149" type="veh_passenger" depart="305.67" departLane="best" departSpeed="max" from="192514354" to="344480865"/>
    <trip id="veh150" type="veh_passenger" depart="307.72" departLane="best" departSpeed="max" from="578634140" to="578603838"/>
    <trip id="veh151" type="veh_passenger" depart="309.78" departLane="best" departSpeed="max" from="578603834" to="192555670"/>
    <trip id="veh153" type="veh_passenger" depart="313.88" departLane="best" departSpeed="max" from="813218843" to="192555670"/>
    <trip id="veh154" type="veh_passenger" depart="315.93" departLane="best" departSpeed="max" from="192514354" to="578603838"/>
    <trip id="veh155" type="veh_passenger" depart="317.98" departLane="best" departSpeed="max" from="687858531#0" to="344480865"/>
    <trip id="veh156" type="veh_passenger" depart="320.03" departLane="best" departSpeed="max" from="192555671" to="192514353"/>
    <trip id="veh157" type="veh_passenger" depart="322.08" departLane="best" departSpeed="max" from="813218843" to="192514353"/>
    <trip id="veh158" type="veh_passenger" depart="324.14" departLane="best" departSpeed="max" from="192555671" to="687858529"/>
    <trip id="veh159" type="veh_passenger" depart="326.19" departLane="best" departSpeed="max" from="578634140" to="192514353"/>
    <trip id="veh160" type="veh_passenger" depart="328.24" departLane="best" departSpeed="max" from="192514354" to="344480865"/>
    <trip id="veh161" type="veh_passenger" depart="330.29" departLane="best" departSpeed="max" from="192555671" to="813218842"/>
    <trip id="veh162" type="veh_passenger" depart="332.34" departLane="best" departSpeed="max" from="578634140" to="192514353"/>
    <trip id="veh163" type="veh_passenger" depart="334.39" departLane="best" departSpeed="max" from="578603834" to="687858532#1"/>
    <trip id="veh166" type="veh_passenger" depart="340.55" departLane="best" departSpeed="max" from="813219655" to="578603838"/>
    <trip id="veh167" type="veh_passenger" depart="342.60" departLane="best" departSpeed="max" from="687858531#0" to="578603838"/>
    <trip id="veh168" type="veh_passenger" depart="344.65" departLane="best" departSpeed="max" from="813218843" to="578603838"/>
    <trip id="veh169" type="veh_passenger" depart="346.70" departLane="best" departSpeed="max" from="687858531#0" to="578603838"/>
    <trip id="veh170" type="veh_passenger" depart="348.75" departLane="best" departSpeed="max" from="192514354" to="344480865"/>
    <trip id="veh171" type="veh_passenger" depart="350.81" departLane="best" departSpeed="max" from="578603834" to="344480865"/>
    <trip id="veh172" type="veh_passenger" depart="352.86" departLane="best" departSpeed="max" from="578634140" to="192555670"/>
    <trip id="veh173" type="veh_passenger" depart="354.91" departLane="best" departSpeed="max" from="578603834" to="687858529"/>
    <trip id="veh174" type="veh_passenger" depart="356.96" departLane="best" departSpeed="max" from="687858531#0" to="192514353"/>
    <trip id="veh175" type="veh_passenger" depart="359.01" departLane="best" departSpeed="max" from="578603834" to="192555670"/>
    <trip id="veh176" type="veh_passenger" depart="361.06" departLane="best" departSpeed="max" from="578603834" to="813218842"/>
    <trip id="veh177" type="veh_passenger" depart="363.11" departLane="best" departSpeed="max" from="578634140" to="687858529"/>
    <trip id="veh178" type="veh_passenger" depart="365.17" departLane="best" departSpeed="max" from="578603834" to="192514353"/>
    <trip id="veh179" type="veh_passenger" depart="367.22" departLane="best" departSpeed="max" from="578603834" to="687858529"/>
    <trip id="veh180" type="veh_passenger" depart="369.27" departLane="best" departSpeed="max" from="578603834" to="687858529"/>
    <trip id="veh181" type="veh_passenger" depart="371.32" departLane="best" departSpeed="max" from="578634140" to="578603838"/>
    <trip id="veh182" type="veh_passenger" depart="373.37" departLane="best" departSpeed="max" from="578603834" to="192514353"/>
    <trip id="veh183" type="veh_passenger" depart="375.42" departLane="best" departSpeed="max" from="578603834" to="687858529"/>
    <trip id="veh184" type="veh_passenger" depart="377.48" departLane="best" departSpeed="max" from="578603834" to="192555670"/>
    <trip id="veh185" type="veh_passenger" depart="379.53" departLane="best" departSpeed="max" from="578634140" to="192555670"/>
    <trip id="veh186" type="veh_passenger" depart="381.58" departLane="best" departSpeed="max" from="578634140" to="192514353"/>
    <trip id="veh187" type="veh_passenger" depart="383.63" departLane="best" departSpeed="max" from="192514354" to="578603838"/>
    <trip id="veh188" type="veh_passenger" depart="385.68" departLane="best" departSpeed="max" from="192555671" to="578603838"/>
    <trip id="veh189" type="veh_passenger" depart="387.73" departLane="best" departSpeed="max" from="192514354" to="344480865"/>
    <trip id="veh190" type="veh_passenger" depart="389.78" departLane="best" departSpeed="max" from="192555671" to="344480865"/>
    <trip id="veh191" type="veh_passenger" depart="391.84" departLane="best" departSpeed="max" from="687858531#0" to="344480865"/>
    <trip id="veh192" type="veh_passenger" depart="393.89" departLane="best" departSpeed="max" from="578603834" to="192514353"/>
    <trip id="veh193" type="veh_passenger" depart="395.94" departLane="best" departSpeed="max" from="192514354" to="578603838"/>
    <trip id="veh196" type="veh_passenger" depart="402.09" departLane="best" departSpeed="max" from="578634140" to="687858529"/>
    <trip id="veh197" type="veh_passenger" depart="404.14" departLane="best" departSpeed="max" from="813219655" to="192555670"/>
    <trip id="veh198" type="veh_passenger" depart="406.20" departLane="best" departSpeed="max" from="192514354" to="192555670"/>
    <trip id="veh199" type="veh_passenger" depart="408.25" departLane="best" departSpeed="max" from="192555671" to="687858529"/>
    <trip id="veh200" type="veh_passenger" depart="410.30" departLane="best" departSpeed="max" from="578634140" to="192555670"/>
    <trip id="veh201" type="veh_passenger" depart="412.35" departLane="best" departSpeed="max" from="192555671" to="578603838"/>
    <trip id="veh202" type="veh_passenger" depart="414.40" departLane="best" departSpeed="max" from="687858531#0" to="192555670"/>
    <trip id="veh203" type="veh_passenger" depart="416.45" departLane="best" departSpeed="max" from="578603834" to="687858529"/>
    <trip id="veh205" type="veh_passenger" depart="420.56" departLane="best" departSpeed="max" from="687858531#0" to="192514353"/>
    <trip id="veh206" type="veh_passenger" depart="422.61" departLane="best" departSpeed="max" from="687858531#0" to="578603838"/>
    <trip id="veh207" type="veh_passenger" depart="424.66" departLane="best" departSpeed="max" from="192514354" to="687858529"/>
    <trip id="veh208" type="veh_passenger" depart="426.71" departLane="best" departSpeed="max" from="813218843" to="578603838"/>
    <trip id="veh209" type="veh_passenger" depart="428.76" departLane="best" departSpeed="max" from="192555671" to="813218842"/>
    <trip id="veh210" type="veh_passenger" depart="430.81" departLane="best" departSpeed="max" from="813218843" to="344480865"/>
    <trip id="veh211" type="veh_passenger" depart="432.87" departLane="best" departSpeed="max" from="578603834" to="344480865"/>
    <trip id="veh214" type="veh_passenger" depart="439.02" departLane="best" departSpeed="max" from="687858531#0" to="344480865"/>
    <trip id="veh215" type="veh_passenger" depart="441.07" departLane="best" departSpeed="max" from="578603834" to="687858532#1"/>
    <trip id="veh216" type="veh_passenger" depart="443.12" departLane="best" departSpeed="max" from="578634140" to="578603838"/>
    <trip id="veh217" type="veh_passenger" depart="445.17" departLane="best" departSpeed="max" from="578603834" to="687858529"/>
    <trip id="veh218" type="veh_passenger" depart="447.23" departLane="best" departSpeed="max" from="578603834" to="687858532#1"/>
    <trip id="veh219" type="veh_passenger" depart="449.28" departLane="best" departSpeed="max" from="813218843" to="192514353"/>
    <trip id="veh220" type="veh_passenger" depart="451.33" departLane="best" departSpeed="max" from="813218843" to="344480865"/>
    <trip id="veh221" type="veh_passenger" depart="453.38" departLane="best" departSpeed="max" from="578634140" to="578603838"/>
    <trip id="veh222" type="veh_passenger" depart="455.43" departLane="best" departSpeed="max" from="578603834" to="192514353"/>
    <trip id="veh223" type="veh_passenger" depart="457.48" departLane="best" departSpeed="max" from="813218843" to="192555670"/>
    <trip id="veh224" type="veh_passenger" depart="459.53" departLane="best" departSpeed="max" from="192555671" to="687858532#1"/>
    <trip id="veh225" type="veh_passenger" depart="461.59" departLane="best" departSpeed="max" from="578603834" to="687858532#1"/>
    <trip id="veh226" type="veh_passenger" depart="463.64" departLane="best" departSpeed="max" from="687858531#0" to="344480865"/>
    <trip id="veh228" type="veh_passenger" depart="467.74" departLane="best" departSpeed="max" from="192514354" to="687858529"/>
    <trip id="veh229" type="veh_passenger" depart="469.79" departLane="best" departSpeed="max" from="578634140" to="687858529"/>
    <trip id="veh230" type="veh_passenger" depart="471.84" departLane="best" departSpeed="max" from="687858531#0" to="578603838"/>
    <trip id="veh232" type="veh_passenger" depart="475.95" departLane="best" departSpeed="max" from="192514354" to="192555670"/>
    <trip id="veh233" type="veh_passenger" depart="478.00" departLane="best" departSpeed="max" from="687858531#0" to="344480865"/>
    <trip id="veh234" type="veh_passenger" depart="480.05" departLane="best" departSpeed="max" from="578634140" to="578603838"/>
    <trip id="veh235" type="veh_passenger" depart="482.10" departLane="best" departSpeed="max" from="687858531#0" to="344480865"/>
    <trip id="veh236" type="veh_passenger" depart="484.15" departLane="best" departSpeed="max" from="687858531#0" to="344480865"/>
    <trip id="veh237" type="veh_passenger" depart="486.20" departLane="best" departSpeed="max" from="578603834" to="192555670"/>
    <trip id="veh238" type="veh_passenger" depart="488.26" departLane="best" departSpeed="max" from="578634140" to="687858529"/>
    <trip id="veh239" type="veh_passenger" depart="490.31" departLane="best" departSpeed="max" from="578634140" to="687858529"/>
    <trip id="veh240" type="veh_passenger" depart="492.36" departLane="best" departSpeed="max" from="813219655" to="578603838"/>
    <trip id="veh241" type="veh_passenger" depart="494.41" departLane="best" departSpeed="max" from="578603834" to="192514353"/>