<?xml version="1.0" encoding="UTF-8"?>

<!-- generated on 2024-04-23 19:59:23.226872 by osmWebWizard.py v1_19_0+0000-baa66a0f364
<configuration>
    <net-file value="F:\SUMO\OptimalEmission-SUMO-ReinforcementLearning\2024-04-23-19-58-51\osm.net.xml.gz"/>
    <output-trip-file value="F:\SUMO\OptimalEmission-SUMO-ReinforcementLearning\2024-04-23-19-58-51\osm.motorcycle.trips.xml"/>
    <route-file value="F:\SUMO\OptimalEmission-SUMO-ReinforcementLearning\2024-04-23-19-58-51\osm.motorcycle.rou.xml"/>
    <prefix value="motorcycle"/>
    <trip-attributes value="departLane=&quot;best&quot;"/>
    <fringe-start-attributes value="departSpeed=&quot;max&quot;"/>
    <vehicle-class value="motorcycle"/>
    <fringe-factor value="2"/>
    <vclass value="motorcycle"/>
    <via-edge-types value="highway.motorway,highway.motorway_link,highway.trunk_link,highway.primary_link,highway.secondary_link,highway.tertiary_link"/>
    <max-distance value="1200.0"/>
    <remove-loops value="True"/>
    <validate value="True"/>
    <insertion-density value="4.0"/>
</configuration>
-->

<!-- generated on 2024-04-23 19:59:22 by Eclipse SUMO duarouter Version 1.19.0
<configuration xmlns:xsi="http://www.w3.org/2001/XMLSchema-instance" xsi:noNamespaceSchemaLocation="http://sumo.dlr.de/xsd/duarouterConfiguration.xsd">

    <input>
        <net-file value="F:\SUMO\OptimalEmission-SUMO-ReinforcementLearning\2024-04-23-19-58-51\osm.net.xml.gz"/>
        <route-files value="F:\SUMO\OptimalEmission-SUMO-ReinforcementLearning\2024-04-23-19-58-51\osm.motorcycle.trips.xml"/>
    </input>

    <output>
        <output-file value="F:\SUMO\OptimalEmission-SUMO-ReinforcementLearning\2024-04-23-19-58-51\osm.motorcycle.trips.xml.tmp"/>
        <alternatives-output value="NUL"/>
        <write-trips value="true"/>
    </output>

    <processing>
        <remove-loops value="true"/>
    </processing>

    <time>
        <begin value="0.0"/>
        <end value="3600.0"/>
    </time>

    <report>
        <no-warnings value="true"/>
        <ignore-errors value="true"/>
        <no-step-log value="true"/>
    </report>

</configuration>
-->

<routes xmlns:xsi="http://www.w3.org/2001/XMLSchema-instance" xsi:noNamespaceSchemaLocation="http://sumo.dlr.de/xsd/routes_file.xsd">
    <vType id="motorcycle_motorcycle" vClass="motorcycle"/>
    <trip id="motorcycle1" type="motorcycle_motorcycle" depart="1.03" departLane="best" from="458912665#1" to="158083893"/>
    <trip id="motorcycle2" type="motorcycle_motorcycle" depart="1.54" departLane="best" from="-240371558#0" to="-226004291#2"/>
    <trip id="motorcycle3" type="motorcycle_motorcycle" depart="2.05" departLane="best" from="331917144#1" to="-331917143#1"/>
    <trip id="motorcycle4" type="motorcycle_motorcycle" depart="3.59" departLane="best" from="-458928374#1" to="-306292251#1"/>
    <trip id="motorcycle5" type="motorcycle_motorcycle" depart="4.11" departLane="best" from="398966053#0" to="-398963328#1"/>
    <trip id="motorcycle6" type="motorcycle_motorcycle" depart="4.62" departLane="best" from="-768834030" to="358924320#1"/>
    <trip id="motorcycle7" type="motorcycle_motorcycle" depart="5.13" departLane="best" from="225128985" to="-358924320#2"/>
    <trip id="motorcycle10" type="motorcycle_motorcycle" depart="6.67" departLane="best" from="389358665#1" to="389358654#1"/>
    <trip id="motorcycle11" type="motorcycle_motorcycle" depart="7.19" departLane="best" from="-291985613" to="499627222#1"/>
    <trip id="motorcycle12" type="motorcycle_motorcycle" depart="7.70" departLane="best" departSpeed="max" from="-326381586#1" to="326381461#4"/>
    <trip id="motorcycle13" type="motorcycle_motorcycle" depart="8.21" departLane="best" from="-499627222#1" to="295565064"/>
    <trip id="motorcycle14" type="motorcycle_motorcycle" depart="8.73" departLane="best" from="-325765804#0" to="325765801#1"/>
    <trip id="motorcycle15" type="motorcycle_motorcycle" depart="9.24" departLane="best" from="304050094" to="1244164402"/>
    <trip id="motorcycle16" type="motorcycle_motorcycle" depart="9.75" departLane="best" from="1202791618#1" to="201286089#0"/>
    <trip id="motorcycle17" type="motorcycle_motorcycle" depart="10.27" departLane="best" from="-292001835#0" to="-291987313#0"/>
    <trip id="motorcycle18" type="motorcycle_motorcycle" depart="10.78" departLane="best" from="-1208321194#0" to="1243973542#4"/>
    <trip id="motorcycle19" type="motorcycle_motorcycle" depart="11.29" departLane="best" from="201268676#3" to="-279159911#4"/>
    <trip id="motorcycle20" type="motorcycle_motorcycle" depart="11.81" departLane="best" from="356345998#1" to="226004292"/>
    <trip id="motorcycle22" type="motorcycle_motorcycle" depart="13.35" departLane="best" from="-376542527#3" to="-1005028081#2"/>
    <trip id="motorcycle23" type="motorcycle_motorcycle" depart="14.89" departLane="best" from="458928368" to="-458928376#2"/>
    <trip id="motorcycle24" type="motorcycle_motorcycle" depart="15.91" departLane="best" from="458928374#1" to="306292247#0"/>
    <trip id="motorcycle25" type="motorcycle_motorcycle" depart="16.43" departLane="best" from="-225036180#0" to="-499627215"/>
    <trip id="motorcycle26" type="motorcycle_motorcycle" depart="16.94" departLane="best" departSpeed="max" from="-783290298#1" to="344450808"/>
    <trip id="motorcycle27" type="motorcycle_motorcycle" depart="17.45" departLane="best" from="-1117647007#0" to="-1117647008"/>
    <trip id="motorcycle28" type="motorcycle_motorcycle" depart="17.97" departLane="best" from="255943314#1" to="-393178917"/>
    <trip id="motorcycle29" type="motorcycle_motorcycle" depart="18.48" departLane="best" from="-334113848" to="-243995795"/>
    <trip id="motorcycle30" type="motorcycle_motorcycle" depart="18.99" departLane="best" from="358922872" to="405908380"/>
    <trip id="motorcycle31" type="motorcycle_motorcycle" depart="19.51" departLane="best" departSpeed="max" from="-331907065" to="-331907066#1"/>
    <trip id="motorcycle32" type="motorcycle_motorcycle" depart="20.02" departLane="best" from="398971485#0" to="1005028081#3"/>
    <trip id="motorcycle33" type="motorcycle_motorcycle" depart="20.53" departLane="best" from="-525624757" to="-525624759"/>
    <trip id="motorcycle34" type="motorcycle_motorcycle" depart="21.05" departLane="best" from="-155161062#5" to="-499627222#2"/>
    <trip id="motorcycle35" type="motorcycle_motorcycle" depart="21.56" departLane="best" from="1005028081#0" to="398966065#1"/>
    <trip id="motorcycle36" type="motorcycle_motorcycle" depart="22.07" departLane="best" from="-317159579#0" to="458928397#0"/>
    <trip id="motorcycle38" type="motorcycle_motorcycle" depart="23.61" departLane="best" from="-224989403#0" to="-499627214"/>
    <trip id="motorcycle39" type="motorcycle_motorcycle" depart="24.13" departLane="best" from="-361081208#2" to="1236413836#0"/>
    <trip id="motorcycle40" type="motorcycle_motorcycle" depart="24.64" departLane="best" from="-418971120#0" to="51352144#8"/>
    <trip id="motorcycle41" type="motorcycle_motorcycle" depart="25.15" departLane="best" from="312321777#3" to="-337647541#1"/>
    <trip id="motorcycle42" type="motorcycle_motorcycle" depart="25.67" departLane="best" departSpeed="max" from="201379504#0" to="305449967"/>
    <trip id="motorcycle47" type="motorcycle_motorcycle" depart="28.23" departLane="best" from="-224989408" to="-224989410#1"/>
    <trip id="motorcycle48" type="motorcycle_motorcycle" depart="28.75" departLane="best" from="-458928395#2" to="-458928376#3"/>
    <trip id="motorcycle49" type="motorcycle_motorcycle" depart="29.26" departLane="best" from="169422546#3" to="326381569"/>
    <trip id="motorcycle50" type="motorcycle_motorcycle" depart="29.77" departLane="best" departSpeed="max" from="-329902750" to="201105770"/>
    <trip id="motorcycle51" type="motorcycle_motorcycle" depart="30.29" departLane="best" from="-51352144#10" to="-169419740#1"/>
    <trip id="motorcycle52" type="motorcycle_motorcycle" depart="30.80" departLane="best" from="481561512" to="254916935#1"/>
    <trip id="motorcycle53" type="motorcycle_motorcycle" depart="31.31" departLane="best" departSpeed="max" from="-295565057#8" to="295565063#0"/>
    <trip id="motorcycle54" type="motorcycle_motorcycle" depart="31.83" departLane="best" from="304050182#0" to="-356345998#2"/>
    <trip id="motorcycle55" type="motorcycle_motorcycle" depart="32.34" departLane="best" from="-113471586#4" to="306292240#2"/>
    <trip id="motorcycle56" type="motorcycle_motorcycle" depart="32.85" departLane="best" from="665826298#0" to="-665785174#3"/>
    <trip id="motorcycle57" type="motorcycle_motorcycle" depart="33.37" departLane="best" from="-284343328#3" to="-291985601"/>
    <trip id="motorcycle58" type="motorcycle_motorcycle" depart="33.88" departLane="best" from="-458928381#1" to="458928360#0"/>
    <trip id="motorcycle60" type="motorcycle_motorcycle" depart="34.91" departLane="best" from="1228933796" to="-376542502"/>
    <trip id="motorcycle62" type="motorcycle_motorcycle" depart="35.93" departLane="best" from="-240374578#4" to="458928354#2"/>
    <trip id="motorcycle65" type="motorcycle_motorcycle" depart="37.47" departLane="best" from="-393510957#0" to="-376542504#2"/>
    <trip id="motorcycle66" type="motorcycle_motorcycle" depart="37.99" departLane="best" from="-282128369#2" to="-337647544#0"/>
    <trip id="motorcycle67" type="motorcycle_motorcycle" depart="38.50" departLane="best" departSpeed="max" from="-1136516594" to="1215638247"/>
    <trip id="motorcycle68" type="motorcycle_motorcycle" depart="39.01" departLane="best" from="306292245#0" to="-306292271#0"/>
    <trip id="motorcycle69" type="motorcycle_motorcycle" depart="39.53" departLane="best" from="-640967539" to="-771016797"/>
    <trip id="motorcycle71" type="motorcycle_motorcycle" depart="40.55" departLane="best" from="331907061#5" to="331909670"/>
    <trip id="motorcycle72" type="motorcycle_motorcycle" depart="41.07" departLane="best" from="423174095#3" to="-423174095#3"/>
    <trip id="motorcycle73" type="motorcycle_motorcycle" depart="41.58" departLane="best" from="-201379503#2" to="771013059#1"/>
    <trip id="motorcycle74" type="motorcycle_motorcycle" depart="42.10" departLane="best" departSpeed="max" from="-1124475033" to="-389358654#1"/>
    <trip id="motorcycle75" type="motorcycle_motorcycle" depart="42.61" departLane="best" from="398971485#1" to="1148028664"/>
    <trip id="motorcycle76" type="motorcycle_motorcycle" depart="43.12" departLane="best" departSpeed="max" from="-771019713" to="298203086#2"/>
    <trip id="motorcycle77" type="motorcycle_motorcycle" depart="43.64" departLane="best" departSpeed="max" from="914160851#0" to="356354550#0"/>
    <trip id="motorcycle78" type="motorcycle_motorcycle" depart="44.15" departLane="best" from="-418971120#0" to="199193595#0"/>
    <trip id="motorcycle79" type="motorcycle_motorcycle" depart="44.66" departLane="best" departSpeed="max" from="-224957763#1" to="-224965278#2"/>
    <trip id="motorcycle80" type="motorcycle_motorcycle" depart="45.18" departLane="best" from="551341138" to="-298203074#0"/>
    <trip id="motorcycle81" type="motorcycle_motorcycle" depart="45.69" departLane="best" departSpeed="max" from="-167968274#1" to="418971119#1"/>
    <trip id="motorcycle83" type="motorcycle_motorcycle" depart="46.72" departLane="best" from="-551341120" to="-306292269#0"/>
    <trip id="motorcycle84" type="motorcycle_motorcycle" depart="47.23" departLane="best" from="356345998#5" to="-226004296#0"/>
    <trip id="motorcycle87" type="motorcycle_motorcycle" depart="48.77" departLane="best" from="458928368" to="458928384"/>
    <trip id="motorcycle88" type="motorcycle_motorcycle" depart="49.28" departLane="best" departSpeed="max" from="-499627223" to="295565057#8"/>
    <trip id="motorcycle89" type="motorcycle_motorcycle" depart="49.80" departLane="best" from="-298203071#1" to="458928392"/>
    <trip id="motorcycle90" type="motorcycle_motorcycle" depart="50.31" departLane="best" from="-306292274#2" to="-458912668#6"/>
    <trip id="motorcycle92" type="motorcycle_motorcycle" depart="51.34" departLane="best" from="326009425#1" to="-291607880"/>
    <trip id="motorcycle93" type="motorcycle_motorcycle" depart="51.85" departLane="best" from="-298203079#0" to="1005037225#1"/>
    <trip id="motorcycle94" type="motorcycle_motorcycle" depart="52.36" departLane="best" from="-376543114#1" to="914160846"/>
    <trip id="motorcycle95" type="motorcycle_motorcycle" depart="53.39" departLane="best" from="312321776#1" to="201268676#5"/>
    <trip id="motorcycle96" type="motorcycle_motorcycle" depart="53.90" departLane="best" from="1202791618#0" to="298203071#1"/>
    <trip id="motorcycle97" type="motorcycle_motorcycle" depart="54.42" departLane="best" from="-298203071#0" to="-306292240#0"/>
    <trip id="motorcycle99" type="motorcycle_motorcycle" depart="55.44" departLane="best" from="-224965287#2" to="577840421"/>
    <trip id="motorcycle100" type="motorcycle_motorcycle" depart="55.96" departLane="best" from="184625495#1" to="337647517"/>
    <trip id="motorcycle101" type="motorcycle_motorcycle" depart="56.47" departLane="best" departSpeed="max" from="-1157253402" to="-1005043821"/>
    <trip id="motorcycle102" type="motorcycle_motorcycle" depart="56.98" departLane="best" from="376542523" to="1108380539"/>
    <trip id="motorcycle103" type="motorcycle_motorcycle" depart="57.50" departLane="best" from="-240374578#4" to="306292243#1"/>
    <trip id="motorcycle104" type="motorcycle_motorcycle" depart="58.01" departLane="best" from="361484346#0" to="393510957#0"/>
    <trip id="motorcycle105" type="motorcycle_motorcycle" depart="58.52" departLane="best" from="-404797029" to="-404797037#0"/>
    <trip id="motorcycle107" type="motorcycle_motorcycle" depart="59.55" departLane="best" from="356354555#0" to="113471586#0"/>
    <trip id="motorcycle108" type="motorcycle_motorcycle" depart="60.06" departLane="best" from="1005037228#1" to="-306292269#0"/>
    <trip id="motorcycle110" type="motorcycle_motorcycle" depart="61.09" departLane="best" from="-758504703" to="306297046#1"/>
    <trip id="motorcycle111" type="motorcycle_motorcycle" depart="61.60" departLane="best" departSpeed="max" from="-358921677#1" to="-783290295#0"/>
    <trip id="motorcycle112" type="motorcycle_motorcycle" depart="62.12" departLane="best" from="289808012#0" to="390920655#0"/>
    <trip id="motorcycle113" type="motorcycle_motorcycle" depart="62.63" departLane="best" departSpeed="max" from="-306374639" to="358924320#1"/>
    <trip id="motorcycle114" type="motorcycle_motorcycle" depart="63.14" departLane="best" from="-404107021#1" to="376542522#3"/>
    <trip id="motorcycle115" type="motorcycle_motorcycle" depart="63.66" departLane="best" from="361081208#4" to="-376542504#1"/>
    <trip id="motorcycle116" type="motorcycle_motorcycle" depart="64.17" departLane="best" from="704453549#1" to="156844658#2"/>
    <trip id="motorcycle117" type="motorcycle_motorcycle" depart="64.68" departLane="best" from="331907061#8" to="-240371558#3"/>
    <trip id="motorcycle118" type="motorcycle_motorcycle" depart="65.71" departLane="best" from="-225551699#0" to="-225551699#0"/>
    <trip id="motorcycle119" type="motorcycle_motorcycle" depart="66.22" departLane="best" from="389358669" to="-389358665#5"/>
    <trip id="motorcycle120" type="motorcycle_motorcycle" depart="66.74" departLane="best" departSpeed="max" from="-337647517" to="337647544#5"/>
    <trip id="motorcycle121" type="motorcycle_motorcycle" depart="67.25" departLane="best" from="-458928381#0" to="113471584#2"/>
    <trip id="motorcycle122" type="motorcycle_motorcycle" depart="67.76" departLane="best" from="306292269#3" to="-551318984#0"/>
    <trip id="motorcycle123" type="motorcycle_motorcycle" depart="68.28" departLane="best" from="-665826298#2" to="-665785173"/>
    <trip id="motorcycle124" type="motorcycle_motorcycle" depart="68.79" departLane="best" from="-105249736" to="-307012259#0"/>
    <trip id="motorcycle125" type="motorcycle_motorcycle" depart="69.30" departLane="best" departSpeed="max" from="-105532288#1" to="-440018748#1"/>
    <trip id="motorcycle126" type="motorcycle_motorcycle" depart="69.82" departLane="best" from="-321724515#1" to="391110867"/>
    <trip id="motorcycle128" type="motorcycle_motorcycle" depart="71.36" departLane="best" from="458928374#0" to="458928354#2"/>
    <trip id="motorcycle129" type="motorcycle_motorcycle" depart="71.87" departLane="best" departSpeed="max" from="326381513" to="-218175311#1"/>
    <trip id="motorcycle131" type="motorcycle_motorcycle" depart="72.90" departLane="best" departSpeed="max" from="-1172183267" to="-458928364#3"/>
    <trip id="motorcycle132" type="motorcycle_motorcycle" depart="73.41" departLane="best" from="353294188#1" to="-665826286"/>
    <trip id="motorcycle133" type="motorcycle_motorcycle" depart="73.92" departLane="best" from="-299222114" to="-771013060#2"/>
    <trip id="motorcycle135" type="motorcycle_motorcycle" depart="74.95" departLane="best" from="-665785174#1" to="-665782014#0"/>
    <trip id="motorcycle136" type="motorcycle_motorcycle" depart="75.46" departLane="best" from="-158082412#2" to="-306292285#0"/>
    <trip id="motorcycle137" type="motorcycle_motorcycle" depart="75.98" departLane="best" departSpeed="max" from="-291985607" to="-284343332#0"/>
    <trip id="motorcycle138" type="motorcycle_motorcycle" depart="76.49" departLane="best" from="304050094" to="356345997#4"/>
    <trip id="motorcycle139" type="motorcycle_motorcycle" depart="77.52" departLane="best" from="-158083887" to="458928374#0"/>
    <trip id="motorcycle141" type="motorcycle_motorcycle" depart="78.54" departLane="best" from="-1005037227#1" to="-306292271#1"/>
    <trip id="motorcycle142" type="motorcycle_motorcycle" depart="79.06" departLane="best" from="-551309862#1" to="-398966062#1"/>
    <trip id="motorcycle143" type="motorcycle_motorcycle" depart="80.08" departLane="best" departSpeed="max" from="-317184040" to="317184034"/>
    <trip id="motorcycle144" type="motorcycle_motorcycle" depart="80.60" departLane="best" departSpeed="max" from="-356354566#2" to="-376543115#0"/>
    <trip id="motorcycle145" type="motorcycle_motorcycle" depart="81.62" departLane="best" departSpeed="max" from="155161087#0" to="284407678#0"/>
    <trip id="motorcycle146" type="motorcycle_motorcycle" depart="82.14" departLane="best" from="-326381527#8" to="326381593#0"/>
    <trip id="motorcycle148" type="motorcycle_motorcycle" depart="83.16" departLane="best" from="-1005037228#1" to="-551309859#0"/>
    <trip id="motorcycle149" type="motorcycle_motorcycle" depart="83.68" departLane="best" from="-677241392#0" to="376542524#0"/>
    <trip id="motorcycle150" type="motorcycle_motorcycle" depart="84.19" departLane="best" from="-601679873#1" to="-288655528#0"/>
    <trip id="motorcycle152" type="motorcycle_motorcycle" depart="85.73" departLane="best" from="224965284#2" to="961463453"/>
    <trip id="motorcycle153" type="motorcycle_motorcycle" depart="86.76" departLane="best" departSpeed="max" from="-1208321196" to="-331907054#5"/>
    <trip id="motorcycle155" type="motorcycle_motorcycle" depart="87.78" departLane="best" from="224863443#1" to="-525624759"/>
    <trip id="motorcycle156" type="motorcycle_motorcycle" depart="88.30" departLane="best" from="-29427932#0" to="-224989403#2"/>
    <trip id="motorcycle157" type="motorcycle_motorcycle" depart="88.81" departLane="best" departSpeed="max" from="-295565061" to="155161082"/>
    <trip id="motorcycle160" type="motorcycle_motorcycle" depart="90.35" departLane="best" from="-376543115#2" to="790716449#1"/>
    <trip id="motorcycle161" type="motorcycle_motorcycle" depart="90.86" departLane="best" from="-337647487#0" to="-108352152#1"/>
    <trip id="motorcycle162" type="motorcycle_motorcycle" depart="91.38" departLane="best" departSpeed="max" from="-358924386" to="-577840422#1"/>
    <trip id="motorcycle163" type="motorcycle_motorcycle" depart="91.89" departLane="best" from="-1125034696#2" to="-1125034696#0"/>
    <trip id="motorcycle164" type="motorcycle_motorcycle" depart="92.40" departLane="best" from="268846998#1" to="268847004"/>
    <trip id="motorcycle165" type="motorcycle_motorcycle" depart="92.92" departLane="best" departSpeed="max" from="-112363704#1" to="112363695#1"/>
    <trip id="motorcycle167" type="motorcycle_motorcycle" depart="93.94" departLane="best" from="458928374#1" to="-458928363"/>
    <trip id="motorcycle168" type="motorcycle_motorcycle" depart="94.46" departLane="best" from="240371557#0" to="240371557#2"/>
    <trip id="motorcycle170" type="motorcycle_motorcycle" depart="95.48" departLane="best" departSpeed="max" from="324228422#0" to="51352144#2"/>
    <trip id="motorcycle171" type="motorcycle_motorcycle" depart="96.00" departLane="best" from="-306292285#0" to="306292250#3"/>
    <trip id="motorcycle172" type="motorcycle_motorcycle" depart="96.51" departLane="best" from="389358666" to="-404791056#0"/>
    <trip id="motorcycle175" type="motorcycle_motorcycle" depart="98.05" departLane="best" from="-1214845048#0" to="-298203086#3"/>
    <trip id="motorcycle176" type="motorcycle_motorcycle" depart="98.56" departLane="best" from="327329205" to="-327329205"/>
    <trip id="motorcycle177" type="motorcycle_motorcycle" depart="99.08" departLane="best" from="-790042922#2" to="-376543115#0"/>
    <trip id="motorcycle178" type="motorcycle_motorcycle" depart="100.10" departLane="best" from="376542523" to="-458919000"/>
    <trip id="motorcycle180" type="motorcycle_motorcycle" depart="101.13" departLane="best" from="499627221#1" to="391110861"/>
    <trip id="motorcycle181" type="motorcycle_motorcycle" depart="102.16" departLane="best" departSpeed="max" from="-356354560" to="458912670#1"/>
    <trip id="motorcycle182" type="motorcycle_motorcycle" depart="102.67" departLane="best" from="914160850" to="356354558"/>
    <trip id="motorcycle184" type="motorcycle_motorcycle" depart="103.70" departLane="best" from="-201268676#2" to="337647492#0"/>
    <trip id="motorcycle186" type="motorcycle_motorcycle" depart="105.24" departLane="best" departSpeed="max" from="-458928356#3" to="1108380540#2"/>
    <trip id="motorcycle188" type="motorcycle_motorcycle" depart="106.26" departLane="best" departSpeed="max" from="-783290292" to="-228882688#0"/>
    <trip id="motorcycle189" type="motorcycle_motorcycle" depart="106.78" departLane="best" from="240371558#1" to="-331907059"/>
    <trip id="motorcycle190" type="motorcycle_motorcycle" depart="107.29" departLane="best" from="458918998" to="298203071#0"/>
    <trip id="motorcycle191" type="motorcycle_motorcycle" depart="107.80" departLane="best" from="398966062#2" to="551309862#1"/>
    <trip id="motorcycle192" type="motorcycle_motorcycle" depart="108.32" departLane="best" from="458928364#1" to="306292244#0"/>
    <trip id="motorcycle193" type="motorcycle_motorcycle" depart="108.83" departLane="best" from="-324087678#1" to="696241802"/>
    <trip id="motorcycle194" type="motorcycle_motorcycle" depart="109.34" departLane="best" departSpeed="max" from="-286345048#5" to="1243973542#2"/>
    <trip id="motorcycle195" type="motorcycle_motorcycle" depart="109.86" departLane="best" from="282128369#1" to="-404797033#1"/>
    <trip id="motorcycle197" type="motorcycle_motorcycle" depart="110.88" departLane="best" from="414451872#1" to="376542503#1"/>
    <trip id="motorcycle198" type="motorcycle_motorcycle" depart="111.40" departLane="best" from="-771019710#0" to="334113842#0"/>
    <trip id="motorcycle199" type="motorcycle_motorcycle" depart="111.91" departLane="best" from="-517013738#0" to="440018446"/>
    <trip id="motorcycle200" type="motorcycle_motorcycle" depart="112.42" departLane="best" from="298203074#5" to="298203076#5"/>
    <trip id="motorcycle201" type="motorcycle_motorcycle" depart="112.94" departLane="best" from="240374578#5" to="306292251#2"/>
    <trip id="motorcycle202" type="motorcycle_motorcycle" depart="113.45" departLane="best" from="-284343391#1" to="1046204311"/>
    <trip id="motorcycle203" type="motorcycle_motorcycle" depart="113.96" departLane="best" from="-323704092#1" to="-224547816#0"/>
    <trip id="motorcycle204" type="motorcycle_motorcycle" depart="114.48" departLane="best" from="404797033#1" to="337647490"/>
    <trip id="motorcycle206" type="motorcycle_motorcycle" depart="115.50" departLane="best" from="-1197746488" to="1244164395"/>
    <trip id="motorcycle207" type="motorcycle_motorcycle" depart="116.02" departLane="best" departSpeed="max" from="356356680" to="306292254"/>
    <trip id="motorcycle208" type="motorcycle_motorcycle" depart="116.53" departLane="best" departSpeed="max" from="29427553#0" to="-515193735#3"/>
    <trip id="motorcycle209" type="motorcycle_motorcycle" depart="117.04" departLane="best" departSpeed="max" from="224547808#0" to="437496268#1"/>
    <trip id="motorcycle211" type="motorcycle_motorcycle" depart="118.07" departLane="best" from="-353297133#0" to="243995781#1"/>
    <trip id="motorcycle212" type="motorcycle_motorcycle" depart="118.58" departLane="best" from="332401873" to="-167968270#0"/>
    <trip id="motorcycle213" type="motorcycle_motorcycle" depart="119.10" departLane="best" from="-458912668#5" to="-376542517"/>
    <trip id="motorcycle214" type="motorcycle_motorcycle" depart="119.61" departLane="best" from="304050094" to="389358676"/>
    <trip id="motorcycle215" type="motorcycle_motorcycle" depart="120.12" departLane="best" departSpeed="max" from="-1208321196" to="-240371558#0"/>
    <trip id="motorcycle216" type="motorcycle_motorcycle" depart="120.64" departLane="best" from="-376544150#1" to="353294187#1"/>
    <trip id="motorcycle218" type="motorcycle_motorcycle" depart="122.18" departLane="best" from="-707570924" to="337647517"/>
    <trip id="motorcycle219" type="motorcycle_motorcycle" depart="122.69" departLane="best" from="1128027003" to="398966049#2"/>
    <trip id="motorcycle220" type="motorcycle_motorcycle" depart="123.20" departLane="best" from="317159579#0" to="-1157406072"/>
    <trip id="motorcycle221" type="motorcycle_motorcycle" depart="123.72" departLane="best" from="295565063#1" to="-29427553#3"/>
    <trip id="motorcycle222" type="motorcycle_motorcycle" depart="124.23" departLane="best" from="-291985592#1" to="-29427553#0"/>
    <trip id="motorcycle224" type="motorcycle_motorcycle" depart="125.26" departLane="best" departSpeed="max" from="326381513" to="-319015431#0"/>
    <trip id="motorcycle225" type="motorcycle_motorcycle" depart="126.29" departLane="best" from="284343349" to="358651858#2"/>
    <trip id="motorcycle226" type="motorcycle_motorcycle" depart="126.80" departLane="best" from="-295565057#6" to="291985601"/>
    <trip id="motorcycle227" type="motorcycle_motorcycle" depart="128.34" departLane="best" from="291987303#1" to="499550456"/>
    <trip id="motorcycle228" type="motorcycle_motorcycle" depart="128.85" departLane="best" from="391110861" to="155161062#4"/>
    <trip id="motorcycle231" type="motorcycle_motorcycle" depart="130.91" departLane="best" from="317252023#1" to="277654945#0"/>
    <trip id="motorcycle232" type="motorcycle_motorcycle" depart="131.42" departLane="best" from="-344450810#0" to="-279159911#2"/>
    <trip id="motorcycle233" type="motorcycle_motorcycle" depart="131.93" departLane="best" from="108352135#1" to="332065939#0"/>
    <trip id="motorcycle234" type="motorcycle_motorcycle" depart="132.45" departLane="best" departSpeed="max" from="-989044808" to="-331907067#1"/>
    <trip id="motorcycle235" type="motorcycle_motorcycle" depart="132.96" departLane="best" from="-337647490" to="337647549"/>
    <trip id="motorcycle236" type="motorcycle_motorcycle" depart="133.47" departLane="best" from="458919001" to="-298203074#2"/>
    <trip id="motorcycle238" type="motorcycle_motorcycle" depart="134.50" departLane="best" from="404797029" to="108352144#7"/>
    <trip id="motorcycle240" type="motorcycle_motorcycle" depart="135.53" departLane="best" from="198423702#4" to="-224965285#0"/>
    <trip id="motorcycle241" type="motorcycle_motorcycle" depart="136.04" departLane="best" from="-356345997#7" to="-404791060"/>
    <trip id="motorcycle242" type="motorcycle_motorcycle" depart="136.55" departLane="best" from="306292251#3" to="158083885#0"/>
    <trip id="motorcycle244" type="motorcycle_motorcycle" depart="137.58" departLane="best" from="-1125030899" to="1191423449"/>
    <trip id="motorcycle247" type="motorcycle_motorcycle" depart="139.12" departLane="best" from="-254854924#2" to="-326381500"/>
    <trip id="motorcycle248" type="motorcycle_motorcycle" depart="139.63" departLane="best" from="1172183270" to="306292278#2"/>
    <trip id="motorcycle249" type="motorcycle_motorcycle" depart="140.15" departLane="best" from="-520947851#1" to="326381577"/>
    <trip id="motorcycle250" type="motorcycle_motorcycle" depart="140.66" departLane="best" from="-640967540#0" to="277654945#1"/>
    <trip id="motorcycle251" type="motorcycle_motorcycle" depart="141.17" departLane="best" from="-1148036395" to="-201286089#0"/>
    <trip id="motorcycle252" type="motorcycle_motorcycle" depart="141.69" departLane="best" from="155161043#0" to="-356357951"/>
    <trip id="motorcycle253" type="motorcycle_motorcycle" depart="142.20" departLane="best" from="331907061#3" to="-240371558#2"/>
    <trip id="motorcycle254" type="motorcycle_motorcycle" depart="142.71" departLane="best" from="398971485#1" to="1148036395"/>
    <trip id="motorcycle255" type="motorcycle_motorcycle" depart="143.74" departLane="best" from="306292274#2" to="1136517110"/>
    <trip id="motorcycle256" type="motorcycle_motorcycle" depart="144.25" departLane="best" from="398972258" to="398966050#0"/>
    <trip id="motorcycle257" type="motorcycle_motorcycle" depart="144.77" departLane="best" from="-224993752#0" to="391110868"/>
    <trip id="motorcycle258" type="motorcycle_motorcycle" depart="145.28" departLane="best" from="-458912668#10" to="-158082412#1"/>