<?xml version="1.0" encoding="UTF-8"?>

<!-- generated on 2024-04-23 19:59:12.037416 by osmWebWizard.py v1_19_0+0000-baa66a0f364
<configuration>
    <net-file value="F:\SUMO\OptimalEmission-SUMO-ReinforcementLearning\2024-04-23-19-58-51\osm.net.xml.gz"/>
    <output-trip-file value="F:\SUMO\OptimalEmission-SUMO-ReinforcementLearning\2024-04-23-19-58-51\osm.bus.trips.xml"/>
    <route-file value="F:\SUMO\OptimalEmission-SUMO-ReinforcementLearning\2024-04-23-19-58-51\osm.bus.rou.xml"/>
    <prefix value="bus"/>
    <trip-attributes value="departLane=&quot;best&quot;"/>
    <fringe-start-attributes value="departSpeed=&quot;max&quot;"/>
    <vehicle-class value="bus"/>
    <fringe-factor value="5"/>
    <vclass value="bus"/>
    <via-edge-types value="highway.motorway,highway.motorway_link,highway.trunk_link,highway.primary_link,highway.secondary_link,highway.tertiary_link"/>
    <min-distance value="600.0"/>
    <min-distance.fringe value="10.0"/>
    <remove-loops value="True"/>
    <validate value="True"/>
    <insertion-density value="4.0"/>
</configuration>
-->

<!-- generated on 2024-04-23 19:59:11 by Eclipse SUMO duarouter Version 1.19.0
<configuration xmlns:xsi="http://www.w3.org/2001/XMLSchema-instance" xsi:noNamespaceSchemaLocation="http://sumo.dlr.de/xsd/duarouterConfiguration.xsd">

    <input>
        <net-file value="F:\SUMO\OptimalEmission-SUMO-ReinforcementLearning\2024-04-23-19-58-51\osm.net.xml.gz"/>
        <route-files value="F:\SUMO\OptimalEmission-SUMO-ReinforcementLearning\2024-04-23-19-58-51\osm.bus.trips.xml"/>
    </input>

    <output>
        <output-file value="F:\SUMO\OptimalEmission-SUMO-ReinforcementLearning\2024-04-23-19-58-51\osm.bus.trips.xml.tmp"/>
        <alternatives-output value="NUL"/>
        <write-trips value="true"/>
    </output>

    <processing>
        <remove-loops value="true"/>
    </processing>

    <time>
        <begin value="0.0"/>
        <end value="3600.0"/>
    </time>

    <report>
        <no-warnings value="true"/>
        <ignore-errors value="true"/>
        <no-step-log value="true"/>
    </report>

</configuration>
-->

<routes xmlns:xsi="http://www.w3.org/2001/XMLSchema-instance" xsi:noNamespaceSchemaLocation="http://sumo.dlr.de/xsd/routes_file.xsd">
    <vType id="bus_bus" vClass="bus"/>
    <trip id="bus0" type="bus_bus" depart="0.00" departLane="best" departSpeed="max" from="687858531#0" to="192514353"/>
    <trip id="bus2" type="bus_bus" depart="12.31" departLane="best" departSpeed="max" from="578603834" to="192514353"/>
    <trip id="bus3" type="bus_bus" depart="18.46" departLane="best" departSpeed="max" from="192555671" to="578603838"/>
    <trip id="bus4" type="bus_bus" depart="24.62" departLane="best" departSpeed="max" from="192514354" to="192555670"/>
    <trip id="bus5" type="bus_bus" depart="30.77" departLane="best" departSpeed="max" from="687858531#0" to="578603838"/>
    <trip id="bus6" type="bus_bus" depart="36.93" departLane="best" departSpeed="max" from="192555671" to="687858529"/>
    <trip id="bus7" type="bus_bus" depart="43.08" departLane="best" departSpeed="max" from="813218843" to="192514353"/>
    <trip id="bus8" type="bus_bus" depart="49.24" departLane="best" departSpeed="max" from="578603834" to="192555670"/>
    <trip id="bus11" type="bus_bus" depart="67.70" departLane="best" departSpeed="max" from="687858531#0" to="192514353"/>
    <trip id="bus12" type="bus_bus" depart="73.85" departLane="best" departSpeed="max" from="192555671" to="344480865"/>
    <trip id="bus13" type="bus_bus" depart="80.01" departLane="best" departSpeed="max" from="192514354" to="192555670"/>
    <trip id="bus14" type="bus_bus" depart="86.16" departLane="best" departSpeed="max" from="192514354" to="192555670"/>
    <trip id="bus15" type="bus_bus" depart="92.32" departLane="best" departSpeed="max" from="687858531#0" to="344480865"/>
    <trip id="bus16" type="bus_bus" depart="98.47" departLane="best" departSpeed="max" from="578603834" to="192555670"/>
    <trip id="bus17" type="bus_bus" depart="104.63" departLane="best" departSpeed="max" from="192555671" to="813218842"/>
    <trip id="bus18" type="bus_bus" depart="110.78" departLane="best" departSpeed="max" from="192555671" to="687858532#1"/>
    <trip id="bus19" type="bus_bus" depart="116.94" departLane="best" departSpeed="max" from="192555671" to="344480865"/>
    <trip id="bus20" type="bus_bus" depart="123.09" departLane="best" departSpeed="max" from="578634140" to="687858529"/>
    <trip id="bus21" type="bus_bus" depart="129.24" departLane="best" departSpeed="max" from="192555671" to="192514353"/>
    <trip id="bus22" type="bus_bus" depart="135.40" departLane="best" departSpeed="max" from="578603834" to="192555670"/>
    <trip id="bus23" type="bus_bus" depart="141.55" departLane="best" departSpeed="max" from="192555671" to="813218842"/>
    <trip id="bus25" type="bus_bus" depart="153.86" departLane="best" departSpeed="max" from="687858531#0" to="344480865"/>
    <trip id="bus26" type="bus_bus" depart="160.02" departLane="best" departSpeed="max" from="813219655" to="578603838"/>
    <trip id="bus27" type="bus_bus" depart="166.17" departLane="best" departSpeed="max" from="578634140" to="192555670"/>
    <trip id="bus28" type="bus_bus" depart="172.33" departLane="best" departSpeed="max" from="578603834" to="192555670"/>
    <trip id="bus29" type="bus_bus" depart="178.48" departLane="best" departSpeed="max" from="813219655" to="578603838"/>
    <trip id="bus30" type="bus_bus" depart="184.63" departLane="best" departSpeed="max" from="192514354" to="687858529"/>
    <trip id="bus31" type="bus_bus" depart="190.79" departLane="best" departSpeed="max" from="813218843" to="344480865"/>
    <trip id="bus32" type="bus_bus" depart="196.94" departLane="best" departSpeed="max" from="192514354" to="344480865"/>
    <trip id="bus33" type="bus_bus" depart="203.10" departLane="best" departSpeed="max" from="813219655" to="578603838"/>
    <trip id="bus35" type="bus_bus" depart="215.41" departLane="best" departSpeed="max" from="687858531#0" to="578603838"/>
    <trip id="bus36" type="bus_bus" depart="221.56" departLane="best" departSpeed="max" from="192555671" to="687858529"/>
    <trip id="bus37" type="bus_bus" depart="227.72" departLane="best" departSpeed="max" from="192514354" to="578603838"/>
    <trip id="bus39" type="bus_bus" depart="240.02" departLane="best" departSpeed="max" from="813219655" to="192555670"/>
    <trip id="bus40" type="bus_bus" depart="246.18" departLane="best" departSpeed="max" from="578634140" to="192555670"/>
    <trip id="bus41" type="bus_bus" depart="252.33" departLane="best" departSpeed="max" from="578603834" to="687858529"/>
    <trip id="bus42" type="bus_bus" depart="258.49" departLane="best" departSpeed="max" from="687858531#0" to="192555670"/>
    <trip id="bus43" type="bus_bus" depart="264.64" departLane="best" departSpeed="max" from="813218843" to="578603838"/>
    <trip id="bus44" type="bus_bus" depart="270.80" departLane="best" departSpeed="max" from="813218843" to="578603838"/>
    <trip id="bus45" type="bus_bus" depart="276.95" departLane="best" departSpeed="max" from="192514354" to="344480865"/>
    <trip id="bus47" type="bus_bus" depart="289.26" departLane="best" departSpeed="max" from="578603834" to="192514353"/>
    <trip id="bus48" type="bus_bus" depart="295.42" departLane="best" departSpeed="max" from="192514354" to="578603838"/>
    <trip id="bus50" type="bus_bus" depart="307.72" departLane="best" departSpeed="max" from="813218843" to="192514353"/>
    <trip id="bus51" type="bus_bus" depart="313.88" departLane="best" departSpeed="max" from="578634140" to="578603838"/>
    <trip id="bus52" type="bus_bus" depart="320.03" departLane="best" departSpeed="max" from="192555671" to="813218842"/>
    <trip id="bus53" type="bus_bus" depart="326.19" departLane="best" departSpeed="max" from="578603834" to="192555670"/>
    <trip id="bus55" type="bus_bus" depart="338.50" departLane="best" departSpeed="max" from="192555671" to="344480865"/>
    <trip id="bus56" type="bus_bus" depart="344.65" departLane="best" departSpeed="max" from="578634140" to="578603838"/>
    <trip id="bus57" type="bus_bus" depart="350.81" departLane="best" departSpeed="max" from="192514354" to="192555670"/>
    <trip id="bus58" type="bus_bus" depart="356.96" departLane="best" departSpeed="max" from="578603834" to="687858529"/>
    <trip id="bus59" type="bus_bus" depart="363.11" departLane="best" departSpeed="max" from="192514354" to="687858529"/>
    <trip id="bus60" type="bus_bus" depart="369.27" departLane="best" departSpeed="max" from="192555671" to="813218842"/>
    <trip id="bus62" type="bus_bus" depart="381.58" departLane="best" departSpeed="max" from="192555671" to="687858529"/>
    <trip id="bus63" type="bus_bus" depart="387.73" departLane="best" departSpeed="max" from="192555671" to="192514353"/>
    <trip id="bus64" type="bus_bus" depart="393.89" departLane="best" departSpeed="max" from="813219655" to="578603838"/>
    <trip id="bus66" type="bus_bus" depart="406.20" departLane="best" departSpeed="max" from="813218843" to="192555670"/>
    <trip id="bus67" type="bus_bus" depart="412.35" departLane="best" departSpeed="max" from="192514354" to="578603838"/>
    <trip id="bus69" type="bus_bus" depart="424.66" departLane="best" departSpeed="max" from="578603834" to="344480865"/>
    <trip id="bus70" type="bus_bus" depart="430.81" departLane="best" departSpeed="max" from="813219655" to="192555670"/>
    <trip id="bus71" type="bus_bus" depart="436.97" departLane="best" departSpeed="max" from="192555671" to="578603838"/>
    <trip id="bus72" type="bus_bus" depart="443.12" departLane="best" departSpeed="max" from="578603834" to="192555670"/>
    <trip id="bus73" type="bus_bus" depart="449.28" departLane="best" departSpeed="max" from="192555671" to="813218842"/>
    <trip id="bus75" type="bus_bus" depart="461.59" departLane="best" departSpeed="max" from="578634140" to="192514353"/>
    <trip id="bus76" type="bus_bus" depart="467.74" departLane="best" departSpeed="max" from="813218843" to="192555670"/>
    <trip id="bus77" type="bus_bus" depart="473.90" departLane="best" departSpeed="max" from="578634140" to="192555670"/>
    <trip id="bus78" type="bus_bus" depart="480.05" departLane="best" departSpeed="max" from="578603834" to="192514353"/>
    <trip id="bus79" type="bus_bus" depart="486.20" departLane="best" departSpeed="max" from="578603834" to="813218842"/>
    <trip id="bus80" type="bus_bus" depart="492.36" departLane="best" departSpeed="max" from="192555671" to="687858532#1"/>
    <trip id="bus82" type="bus_bus" depart="504.67" departLane="best" departSpeed="max" from="192555671" to="344480865"/>
    <trip id="bus84" type="bus_bus" depart="516.98" departLane="best" departSpeed="max" from="192514354" to="687858529"/>
    <trip id="bus86" type="bus_bus" depart="529.29" departLane="best" departSpeed="max" from="192555671" to="813218842"/>
    <trip id="bus87" type="bus_bus" depart="535.44" departLane="best" departSpeed="max" from="192514354" to="192555670"/>
    <trip id="bus88" type="bus_bus" depart="541.59" departLane="best" departSpeed="max" from="192555671" to="192514353"/>
    <trip id="bus89" type="bus_bus" depart="547.75" departLane="best" departSpeed="max" from="813219655" to="192555670"/>
    <trip id="bus90" type="bus_bus" depart="553.90" departLane="best" departSpeed="max" from="578603834" to="687858529"/>
    <trip id="bus92" type="bus_bus" depart="566.21" departLane="best" departSpeed="max" from="192555671" to="687858532#1"/>
    <trip id="bus93" type="bus_bus" depart="572.37" departLane="best" departSpeed="max" from="192555671" to="344480865"/>
    <trip id="bus94" type="bus_bus" depart="578.52" departLane="best" departSpeed="max" from="687858531#0" to="344480865"/>
    <trip id="bus95" type="bus_bus" depart="584.68" departLane="best" departSpeed="max" from="578603834" to="687858532#1"/>
    <trip id="bus96" type="bus_bus" depart="590.83" departLane="best" departSpeed="max" from="192514354" to="578603838"/>
    <trip id="bus97" type="bus_bus" depart="596.99" departLane="best" departSpeed="max" from="192514354" to="192555670"/>
    <trip id="bus98" type="bus_bus" depart="603.14" departLane="best" departSpeed="max" from="192555671" to="813218842"/>
    <trip id="bus99" type="bus_bus" depart="609.29" departLane="best" departSpeed="max" from="578603834" to="192555670"/>
    <trip id="bus100" type="bus_bus" depart="615.45" departLane="best" departSpeed="max" from="687858531#0" to="192514353"/>
    <trip id="bus101" type="bus_bus" depart="621.60" departLane="best" departSpeed="max" from="813218843" to="344480865"/>
    <trip id="bus102" type="bus_bus" depart="627.76" departLane="best" departSpeed="max" from="192514354" to="578603838"/>
    <trip id="bus103" type="bus_bus" depart="633.91" departLane="best" departSpeed="max" from="192555671" to="687858529"/>
    <trip id="bus104" type="bus_bus" depart="640.07" departLane="best" departSpeed="max" from="813218843" to="192555670"/>
    <trip id="bus105" type="bus_bus" depart="646.22" departLane="best" departSpeed="max" from="687858531#0" to="192555670"/>
    <trip id="bus107" type="bus_bus" depart="658.53" departLane="best" departSpeed="max" from="813218843" to="192514353"/>
    <trip id="bus108" type="bus_bus" depart="664.68" departLane="best" departSpeed="max" from="578603834" to="192555670"/>
    <trip id="bus110" type="bus_bus" depart="676.99" departLane="best" departSpeed="max" from="687858531#0" to="192555670"/>
    <trip id="bus111" type="bus_bus" depart="683.15" departLane="best" departSpeed="max" from="813218843" to="578603838"/>
    <trip id="bus112" type="bus_bus" depart="689.30" departLane="best" departSpeed="max" from="578603834" to="192514353"/>
    <trip id="bus114" type="bus_bus" depart="701.61" departLane="best" departSpeed="max" from="813219655" to="578603838"/>
    <trip id="bus115" type="bus_bus" depart="707.77" departLane="best" departSpeed="max" from="192555671" to="192514353"/>
    <trip id="bus116" type="bus_bus" depart="713.92" departLane="best" departSpeed="max" from="578603834" to="813218842"/>
    <trip id="bus117" type="bus_bus" depart="720.07" departLane="best" departSpeed="max" from="813219655" to="192555670"/>
    <trip id="bus118" type="bus_bus" depart="726.23" departLane="best" departSpeed="max" from="192555671" to="192514353"/>
    <trip id="bus119" type="bus_bus" depart="732.38" departLane="best" departSpeed="max" from="578603834" to="687858529"/>
    <trip id="bus120" type="bus_bus" depart="738.54" departLane="best" departSpeed="max" from="192555671" to="813218842"/>
    <trip id="bus122" type="bus_bus" depart="750.85" departLane="best" departSpeed="max" from="578603834" to="813218842"/>
    <trip id="bus123" type="bus_bus" depart="757.00" departLane="best" departSpeed="max" from="813218843" to="192555670"/>
    <trip id="bus124" type="bus_bus" depart="763.16" departLane="best" departSpeed="max" from="813218843" to="192514353"/>
    <trip id="bus125" type="bus_bus" depart="769.31" departLane="best" departSpeed="max" from="192555671" to="687858532#1"/>
    <trip id="bus126" type="bus_bus" depart="775.47" departLane="best" departSpeed="max" from="813218843" to="192555670"/>
    <trip id="bus127" type="bus_bus" depart="781.62" departLane="best" departSpeed="max" from="192514354" to="192555670"/>
    <trip id="bus128" type="bus_bus" depart="787.77" departLane="best" departSpeed="max" from="578603834" to="813218842"/>
    <trip id="bus129" type="bus_bus" depart="793.93" departLane="best" departSpeed="max" from="813219655" to="192555670"/>
    <trip id="bus130" type="bus_bus" depart="800.08" departLane="best" departSpeed="max" from="687858531#0" to="344480865"/>
    <trip id="bus131" type="bus_bus" depart="806.24" departLane="best" departSpeed="max" from="813219655" to="578603838"/>
    <trip id="bus133" type="bus_bus" depart="818.55" departLane="best" departSpeed="max" from="813219655" to="192555670"/>
    <trip id="bus134" type="bus_bus" depart="824.70" departLane="best" departSpeed="max" from="813219655" to="192555670"/>
    <trip id="bus135" type="bus_bus" depart="830.86" departLane="best" departSpeed="max" from="192514354" to="578603838"/>
    <trip id="bus136" type="bus_bus" depart="837.01" departLane="best" departSpeed="max" from="813218843" to="344480865"/>
    <trip id="bus137" type="bus_bus" depart="843.16" departLane="best" departSpeed="max" from="687858531#0" to="578603838"/>
    <trip id="bus138" type="bus_bus" depart="849.32" departLane="best" departSpeed="max" from="578603834" to="687858529"/>
    <trip id="bus139" type="bus_bus" depart="855.47" departLane="best" departSpeed="max" from="192555671" to="687858529"/>
    <trip id="bus142" type="bus_bus" depart="873.94" departLane="best" departSpeed="max" from="578603834" to="192514353"/>
    <trip id="bus143" type="bus_bus" depart="880.09" departLane="best" departSpeed="max" from="687858531#0" to="344480865"/>
    <trip id="bus144" type="bus_bus" depart="886.25" departLane="best" departSpeed="max" from="578603834" to="687858532#1"/>
    <trip id="bus145" type="bus_bus" depart="892.40" departLane="best" departSpeed="max" from="813218843" to="344480865"/>
    <trip id="bus146" type="bus_bus" depart="898.55" departLane="best" departSpeed="max" from="578603834" to="344480865"/>
    <trip id="bus147" type="bus_bus" depart="904.71" departLane="best" departSpeed="max" from="578603834" to="344480865"/>
    <trip id="bus148" type="bus_bus" depart="910.86" departLane="best" departSpeed="max" from="192514354" to="344480865"/>
    <trip id="bus149" type="bus_bus" depart="917.02" departLane="best" departSpeed="max" from="192514354" to="344480865"/>
    <trip id="bus150" type="bus_bus" depart="923.17" departLane="best" departSpeed="max" from="578634140" to="687858529"/>
    <trip id="bus151" type="bus_bus" depart="929.33" departLane="best" departSpeed="max" from="687858531#0" to="578603838"/>
    <trip id="bus152" type="bus_bus" depart="935.48" departLane="best" departSpeed="max" from="578634140" to="192555670"/>
    <trip id="bus154" type="bus_bus" depart="947.79" departLane="best" departSpeed="max" from="813218843" to="192555670"/>
    <trip id="bus155" type="bus_bus" depart="953.95" departLane="best" departSpeed="max" from="192514354" to="578603838"/>
    <trip id="bus156" type="bus_bus" depart="960.10" departLane="best" departSpeed="max" from="687858531#0" to="344480865"/>
    <trip id="bus157" type="bus_bus" depart="966.25" departLane="best" departSpeed="max" from="687858531#0" to="192555670"/>
    <trip id="bus158" type="bus_bus" depart="972.41" departLane="best" departSpeed="max" from="192555671" to="192514353"/>
    <trip id="bus159" type="bus_bus" depart="978.56" departLane="best" departSpeed="max" from="192555671" to="578603838"/>
    <trip id="bus160" type="bus_bus" depart="984.72" departLane="best" departSpeed="max" from="813218843" to="192514353"/>
    <trip id="bus161" type="bus_bus" depart="990.87" departLane="best" departSpeed="max" from="578603834" to="687858529"/>
    <trip id="bus162" type="bus_bus" depart="997.03" departLane="best" departSpeed="max" from="192555671" to="687858529"/>
    <trip id="bus163" type="bus_bus" depart="1003.18" departLane="best" departSpeed="max" from="578634140" to="192555670"/>
    <trip id="bus164" type="bus_bus" depart="1009.34" departLane="best" departSpeed="max" from="687858531#0" to="192514353"/>
    <trip id="bus165" type="bus_bus" depart="1015.49" departLane="best" departSpeed="max" from="192514354" to="344480865"/>
    <trip id="bus166" type="bus_bus" depart="1021.64" departLane="best" departSpeed="max" from="192555671" to="813218842"/>
    <trip id="bus167" type="bus_bus" depart="1027.80" departLane="best" departSpeed="max" from="578634140" to="192514353"/>
    <trip id="bus168" type="bus_bus" depart="1033.95" departLane="best" departSpeed="max" from="192555671" to="687858532#1"/>
    <trip id="bus170" type="bus_bus" depart="1046.26" departLane="best" departSpeed="max" from="813218843" to="578603838"/>
    <trip id="bus171" type="bus_bus" depart="1052.42" departLane="best" departSpeed="max" from="813218843" to="578603838"/>
    <trip id="bus172" type="bus_bus" depart="1058.57" departLane="best" departSpeed="max" from="578634140" to="192555670"/>
    <trip id="bus173" type="bus_bus" depart="1064.73" departLane="best" departSpeed="max" from="192555671" to="687858529"/>
    <trip id="bus174" type="bus_bus" depart="1070.88" departLane="best" departSpeed="max" from="813218843" to="578603838"/>
    <trip id="bus175" type="bus_bus" depart="1077.04" departLane="best" departSpeed="max" from="687858531#0" to="192555670"/>
    <trip id="bus176" type="bus_bus" depart="1083.19" departLane="best" departSpeed="max" from="192514354" to="344480865"/>
    <trip id="bus177" type="bus_bus" depart="1089.34" departLane="best" departSpeed="max" from="192555671" to="344480865"/>
    <trip id="bus178" type="bus_bus" depart="1095.50" departLane="best" departSpeed="max" from="578634140" to="192514353"/>
    <trip id="bus179" type="bus_bus" depart="1101.65" departLane="best" departSpeed="max" from="192555671" to="687858529"/>
    <trip id="bus180" type="bus_bus" depart="1107.81" departLane="best" departSpeed="max" from="687858531#0" to="192514353"/>
    <trip id="bus181" type="bus_bus" depart="1113.96" departLane="best" departSpeed="max" from="578603834" to="192555670"/>
    <trip id="bus182" type="bus_bus" depart="1120.12" departLane="best" departSpeed="max" from="578603834" to="813218842"/>
    <trip id="bus183" type="bus_bus" depart="1126.27" departLane="best" departSpeed="max" from="578603834" to="192514353"/>
    <trip id="bus184" type="bus_bus" depart="1132.43" departLane="best" departSpeed="max" from="578603834" to="687858532#1"/>
    <trip id="bus185" type="bus_bus" depart="1138.58" departLane="best" departSpeed="max" from="578603834" to="687858532#1"/>
    <trip id="bus186" type="bus_bus" depart="1144.73" departLane="best" departSpeed="max" from="578634140" to="687858529"/>
    <trip id="bus187" type="bus_bus" depart="1150.89" departLane="best" departSpeed="max" from="578634140" to="192514353"/>
    <trip id="bus188" type="bus_bus" depart="1157.04" departLane="best" departSpeed="max" from="578603834" to="687858529"/>
    <trip id="bus189" type="bus_bus" depart="1163.20" departLane="best" departSpeed="max" from="578603834" to="192555670"/>
    <trip id="bus190" type="bus_bus" depart="1169.35" departLane="best" departSpeed="max" from="578634140" to="192514353"/>
    <trip id="bus191" type="bus_bus" depart="1175.51" departLane="best" departSpeed="max" from="687858531#0" to="192514353"/>
    <trip id="bus192" type="bus_bus" depart="1181.66" departLane="best" departSpeed="max" from="192514354" to="687858529"/>
    <trip id="bus193" type="bus_bus" depart="1187.82" departLane="best" departSpeed="max" from="192514354" to="578603838"/>
    <trip id="bus194" type="bus_bus" depart="1193.97" departLane="best" departSpeed="max" from="192514354" to="344480865"/>
    <trip id="bus195" type="bus_bus" depart="1200.12" departLane="best" departSpeed="max" from="192555671" to="344480865"/>
    <trip id="bus196" type="bus_bus" depart="1206.28" departLane="best" departSpeed="max" from="813218843" to="344480865"/>
    <trip id="bus197" type="bus_bus" depart="1212.43" departLane="best" departSpeed="max" from="192555671" to="192514353"/>
    <trip id="bus198" type="bus_bus" depart="1218.59" departLane="best" departSpeed="max" from="192514354" to="578603838"/>
    <trip id="bus200" type="bus_bus" depart="1230.90" departLane="best" departSpeed="max" from="813219655" to="192555670"/>
    <trip id="bus201" type="bus_bus" depart="1237.05" departLane="best" departSpeed="max" from="192514354" to="192555670"/>
    <trip id="bus202" type="bus_bus" depart="1243.21" departLane="best" departSpeed="max" from="192514354" to="687858529"/>
    <trip id="bus203" type="bus_bus" depart="1249.36" departLane="best" departSpeed="max" from="578634140" to="192555670"/>
    <trip id="bus204" type="bus_bus" depart="1255.52" departLane="best" departSpeed="max" from="192555671" to="687858529"/>
    <trip id="bus205" type="bus_bus" depart="1261.67" departLane="best" departSpeed="max" from="813218843" to="192514353"/>
    <trip id="bus206" type="bus_bus" depart="1267.82" departLane="best" departSpeed="max" from="578603834" to="687858529"/>
    <trip id="bus208" type="bus_bus" depart="1280.13" departLane="best" departSpeed="max" from="813218843" to="192514353"/>
    <trip id="bus211" type="bus_bus" depart="1298.60" departLane="best" departSpeed="max" from="813218843" to="344480865"/>
    <trip id="bus212" type="bus_bus" depart="1304.75" departLane="best" departSpeed="max" from="578603834" to="344480865"/>
    <trip id="bus214" type="bus_bus" depart="1317.06" departLane="best" departSpeed="max" from="687858531#0" to="578603838"/>
    <trip id="bus215" type="bus_bus" depart="1323.21" departLane="best" departSpeed="max" from="192555671" to="687858532#1"/>
    <trip id="bus216" type="bus_bus" depart="1329.37" departLane="best" departSpeed="max" from="578634140" to="578603838"/>
    <trip id="bus218" type="bus_bus" depart="1341.68" departLane="best" departSpeed="max" from="192555671" to="687858532#1"/>
    <trip id="bus219" type="bus_bus" depart="1347.83" departLane="best" departSpeed="max" from="813218843" to="192514353"/>
    <trip id="bus220" type="bus_bus" depart="1353.99" departLane="best" departSpeed="max" from="813219655" to="192555670"/>
    <trip id="bus221" type="bus_bus" depart="1360.14" departLane="best" departSpeed="max" from="578634140" to="687858529"/>
    <trip id="bus222" type="bus_bus" depart="1366.30" departLane="best" departSpeed="max" from="578603834" to="192514353"/>
    <trip id="bus223" type="bus_bus" depart="1372.45" departLane="best" departSpeed="max" from="813218843" to="192555670"/>
    <trip id="bus224" type="bus_bus" depart="1378.60" departLane="best" departSpeed="max" from="192555671" to="687858532#1"/>
    <trip id="bus225" type="bus_bus" depart="1384.76" departLane="best" departSpeed="max" from="578603834" to="813218842"/>
    <trip id="bus226" type="bus_bus" depart="1390.91" departLane="best" departSpeed="max" from="687858531#0" to="192555670"/>
    <trip id="bus231" type="bus_bus" depart="1421.69" departLane="best" departSpeed="max" from="192514354" to="192555670"/>
    <trip id="bus232" type="bus_bus" depart="1427.84" departLane="best" departSpeed="max" from="687858531#0" to="344480865"/>
    <trip id="bus233" type="bus_bus" depart="1434.00" departLane="best" departSpeed="max" from="687858531#0" to="578603838"/>
    <trip id="bus234" type="bus_bus" depart="1440.15" departLane="best" departSpeed="max" from="813218843" to="344480865"/>
    <trip id="bus235" type="bus_bus" depart="1446.30" departLane="best" departSpeed="max" from="687858531#0" to="192555670"/>
    <trip id="bus236" type="bus_bus" depart="1452.46" departLane="best" departSpeed="max" from="192555671" to="192514353"/>
    <trip id="bus237" type="bus_bus" depart="1458.61" departLane="best" departSpeed="max" from="192555671" to="192514353"/>
    <trip id="bus240" type="bus_bus" depart="1477.08" departLane="best" departSpeed="max" from="813219655" to="578603838"/>
    <trip id="bus241" type="bus_bus" depart="1483.23" departLane="best" departSpeed="max" from="192555671" to="192514353"/>
    <trip id="bus242" type="bus_bus" depart="1489.39" departLane="best" departSpeed="max" from="192555671" to="192514353"/>
    <trip id="bus243" type="bus_bus" depart="1495.54" departLane="best" departSpeed="max" from="578634140" to="192555670"/>
    <trip id="bus244" type="bus_bus" depart="1501.69" departLane="best" departSpeed="max" from="813219655" to="578603838"/>
    <trip id="bus245" type="bus_bus" depart="1507.85" departLane="best" departSpeed="max" from="687858531#0" to="192514353"/>
    <trip id="bus246" type="bus_bus" depart="1514.00" departLane="best" departSpeed="max" from="813219655" to="578603838"/>
    <trip id="bus247" type="bus_bus" depart="1520.16" departLane="best" departSpeed="max" from="578634140" to="578603838"/>
    <trip id="bus248" type="bus_bus" depart="1526.31" departLane="best" departSpeed="max" from="192555671" to="192514353"/>
    <trip id="bus249" type="bus_bus" depart="1532.47" departLane="best" departSpeed="max" from="813219655" to="578603838"/>
    <trip id="bus250" type="bus_bus" depart="1538.62" departLane="best" departSpeed="max" from="813218843" to="344480865"/>
    <trip id="bus251" type="bus_bus" depart="1544.78" departLane="best" departSpeed="max" from="192514354" to="687858529"/>
    <trip id="bus252" type="bus_bus" depart="1550.93" departLane="best" departSpeed="max" from="192514354" to="192555670"/>
    <trip id="bus254" type="bus_bus" depart="1563.24" departLane="best" departSpeed="max" from="813218843" to="192555670"/>
    <trip id="bus255" type="bus_bus" depart="1569.39" departLane="best" departSpeed="max" from="578634140" to="578603838"/>
    <trip id="bus258" type="bus_bus" depart="1587.86" departLane="best" departSpeed="max" from="687858531#0" to="192555670"/>
    <trip id="bus259" type="bus_bus" depart="1594.01" departLane="best" departSpeed="max" from="192555671" to="192514353"/>
    <trip id="bus260" type="bus_bus" depart="1600.17" departLane="best" departSpeed="max" from="192514354" to="578603838"/>
    <trip id="bus261" type="bus_bus" depart="1606.32" departLane="best" departSpeed="max" from="687858531#0" to="344480865"/>
    <trip id="bus262" type="bus_bus" depart="1612.48" departLane="best" departSpeed="max" from="192555671" to="687858529"/>
    <trip id="bus263" type="bus_bus" depart="1618.63" departLane="best" departSpeed="max" from="687858531#0" to="578603838"/>
    <trip id="bus264" type="bus_bus" depart="1624.78" departLane="best" departSpeed="max" from="813218843" to="192514353"/>