<?xml version="1.0" encoding="UTF-8"?>

<!-- generated on 2024-05-06 21:25:20.460702 by osmWebWizard.py v1_19_0+0000-baa66a0f364
<configuration>
    <net-file value="F:\SUMO\OptimalEmission-SUMO-ReinforcementLearning\2024-05-06-21-25-06\osm.net.xml.gz"/>
    <output-trip-file value="F:\SUMO\OptimalEmission-SUMO-ReinforcementLearning\2024-05-06-21-25-06\osm.motorcycle.trips.xml"/>
    <route-file value="F:\SUMO\OptimalEmission-SUMO-ReinforcementLearning\2024-05-06-21-25-06\osm.motorcycle.rou.xml"/>
    <prefix value="motorcycle"/>
    <trip-attributes value="departLane=&quot;best&quot;"/>
    <fringe-start-attributes value="departSpeed=&quot;max&quot;"/>
    <vehicle-class value="motorcycle"/>
    <fringe-factor value="2"/>
    <vclass value="motorcycle"/>
    <via-edge-types value="highway.motorway,highway.motorway_link,highway.trunk_link,highway.primary_link,highway.secondary_link,highway.tertiary_link"/>
    <max-distance value="1200.0"/>
    <remove-loops value="True"/>
    <validate value="True"/>
    <end value="60000.0"/>
    <insertion-density value="4.0"/>
</configuration>
-->

<!-- generated on 2024-05-06 21:25:20 by Eclipse SUMO duarouter Version 1.19.0
<configuration xmlns:xsi="http://www.w3.org/2001/XMLSchema-instance" xsi:noNamespaceSchemaLocation="http://sumo.dlr.de/xsd/duarouterConfiguration.xsd">

    <input>
        <net-file value="F:\SUMO\OptimalEmission-SUMO-ReinforcementLearning\2024-05-06-21-25-06\osm.net.xml.gz"/>
        <route-files value="F:\SUMO\OptimalEmission-SUMO-ReinforcementLearning\2024-05-06-21-25-06\osm.motorcycle.trips.xml"/>
    </input>

    <output>
        <output-file value="F:\SUMO\OptimalEmission-SUMO-ReinforcementLearning\2024-05-06-21-25-06\osm.motorcycle.trips.xml.tmp"/>
        <alternatives-output value="NUL"/>
        <write-trips value="true"/>
    </output>

    <processing>
        <remove-loops value="true"/>
    </processing>

    <time>
        <begin value="0.0"/>
        <end value="60000.0"/>
    </time>

    <report>
        <no-warnings value="true"/>
        <ignore-errors value="true"/>
        <no-step-log value="true"/>
    </report>

</configuration>
-->

<routes xmlns:xsi="http://www.w3.org/2001/XMLSchema-instance" xsi:noNamespaceSchemaLocation="http://sumo.dlr.de/xsd/routes_file.xsd">
    <vType id="motorcycle_motorcycle" vClass="motorcycle"/>
    <trip id="motorcycle0" type="motorcycle_motorcycle" depart="0.00" departLane="best" from="196850607#2" to="1105574291#0"/>
    <trip id="motorcycle1" type="motorcycle_motorcycle" depart="32.84" departLane="best" from="-4588219#2" to="35557161#3"/>
    <trip id="motorcycle2" type="motorcycle_motorcycle" depart="65.68" departLane="best" from="320420916#0" to="23755739#2"/>
    <trip id="motorcycle3" type="motorcycle_motorcycle" depart="98.52" departLane="best" departSpeed="max" from="465376240#0" to="1151064410"/>
    <trip id="motorcycle4" type="motorcycle_motorcycle" depart="131.36" departLane="best" from="1110749960#1" to="1105574291#2"/>
    <trip id="motorcycle5" type="motorcycle_motorcycle" depart="164.20" departLane="best" from="-335462874#1" to="1170522567#0"/>
    <trip id="motorcycle6" type="motorcycle_motorcycle" depart="197.03" departLane="best" from="-1105574291#0" to="-320462163#0"/>
    <trip id="motorcycle7" type="motorcycle_motorcycle" depart="229.87" departLane="best" from="196850609#1" to="1190781963#1"/>
    <trip id="motorcycle8" type="motorcycle_motorcycle" depart="262.71" departLane="best" from="-335462916" to="131577613#2"/>
    <trip id="motorcycle9" type="motorcycle_motorcycle" depart="295.55" departLane="best" from="437325055#1" to="-109902441"/>
    <trip id="motorcycle10" type="motorcycle_motorcycle" depart="328.39" departLane="best" from="43233756#1" to="24242892#3"/>
    <trip id="motorcycle11" type="motorcycle_motorcycle" depart="361.23" departLane="best" from="-66071366#2" to="23017852#0"/>
    <trip id="motorcycle12" type="motorcycle_motorcycle" depart="394.07" departLane="best" from="83517336#4" to="-753316506#1"/>
    <trip id="motorcycle13" type="motorcycle_motorcycle" depart="426.91" departLane="best" from="11483007#0" to="-1151333059#2"/>
    <trip id="motorcycle14" type="motorcycle_motorcycle" depart="459.75" departLane="best" from="43233756#1" to="292429062#1"/>
    <trip id="motorcycle15" type="motorcycle_motorcycle" depart="492.59" departLane="best" from="1159149106#0" to="874528353#0"/>
    <trip id="motorcycle16" type="motorcycle_motorcycle" depart="525.42" departLane="best" from="-930343901#1" to="1249342905"/>
    <trip id="motorcycle17" type="motorcycle_motorcycle" depart="558.26" departLane="best" from="448810728" to="171423001#2"/>
    <trip id="motorcycle18" type="motorcycle_motorcycle" depart="591.10" departLane="best" departSpeed="max" from="4611699#0" to="153698394#2"/>
    <trip id="motorcycle19" type="motorcycle_motorcycle" depart="623.94" departLane="best" from="-24913267#3" to="-111833186#1"/>
    <trip id="motorcycle20" type="motorcycle_motorcycle" depart="656.78" departLane="best" from="-35557161#1" to="4610524#0"/>
    <trip id="motorcycle21" type="motorcycle_motorcycle" depart="689.62" departLane="best" from="-1136657259#0" to="-35578576#2"/>
    <trip id="motorcycle22" type="motorcycle_motorcycle" depart="722.46" departLane="best" from="1151333059#1" to="-4588222#1"/>
    <trip id="motorcycle23" type="motorcycle_motorcycle" depart="755.30" departLane="best" from="196850607#1" to="-930343901#4"/>
    <trip id="motorcycle24" type="motorcycle_motorcycle" depart="788.14" departLane="best" from="874528353#1" to="326116285#7"/>
    <trip id="motorcycle25" type="motorcycle_motorcycle" depart="820.98" departLane="best" from="-4412868#2" to="66071379#1"/>
    <trip id="motorcycle26" type="motorcycle_motorcycle" depart="853.82" departLane="best" from="196850609#0" to="169195795#0"/>
    <trip id="motorcycle27" type="motorcycle_motorcycle" depart="886.65" departLane="best" from="1263480787#1" to="292429062#0"/>
    <trip id="motorcycle28" type="motorcycle_motorcycle" depart="919.49" departLane="best" from="-23017852#0" to="1101961674#4"/>
    <trip id="motorcycle29" type="motorcycle_motorcycle" depart="952.33" departLane="best" from="-930343901#4" to="196850608#0"/>
    <trip id="motorcycle30" type="motorcycle_motorcycle" depart="985.17" departLane="best" from="4588220#0" to="342968607#1"/>
    <trip id="motorcycle31" type="motorcycle_motorcycle" depart="1018.01" departLane="best" from="-35557161#1" to="-1110748916#1"/>
    <trip id="motorcycle32" type="motorcycle_motorcycle" depart="1050.85" departLane="best" from="4611710#2" to="-4588211#0"/>
    <trip id="motorcycle33" type="motorcycle_motorcycle" depart="1083.69" departLane="best" from="320462164#2" to="68647306#3"/>
    <trip id="motorcycle34" type="motorcycle_motorcycle" depart="1116.53" departLane="best" from="4611710#1" to="4773029#2"/>
    <trip id="motorcycle35" type="motorcycle_motorcycle" depart="1149.37" departLane="best" from="210668637#1" to="-1110748916#1"/>
    <trip id="motorcycle36" type="motorcycle_motorcycle" depart="1182.21" departLane="best" from="66071366#1" to="1123106898#1"/>
    <trip id="motorcycle37" type="motorcycle_motorcycle" depart="1215.05" departLane="best" from="-4412868#1" to="-43231842#3"/>
    <trip id="motorcycle38" type="motorcycle_motorcycle" depart="1247.88" departLane="best" from="1261128304" to="-4412868#1"/>
    <trip id="motorcycle39" type="motorcycle_motorcycle" depart="1280.72" departLane="best" from="153698402#2" to="4611713"/>
    <trip id="motorcycle40" type="motorcycle_motorcycle" depart="1313.56" departLane="best" from="-1101961674#1" to="35557161#1"/>
    <trip id="motorcycle41" type="motorcycle_motorcycle" depart="1346.40" departLane="best" from="-11483007#2" to="111833186#1"/>
    <trip id="motorcycle42" type="motorcycle_motorcycle" depart="1379.24" departLane="best" from="1155762025#0" to="188386313#1"/>
    <trip id="motorcycle43" type="motorcycle_motorcycle" depart="1412.08" departLane="best" from="424323348" to="111833186#0"/>
    <trip id="motorcycle44" type="motorcycle_motorcycle" depart="1444.92" departLane="best" from="1125869405#0" to="1101961735#1"/>
    <trip id="motorcycle45" type="motorcycle_motorcycle" depart="1477.76" departLane="best" from="874528353#1" to="4610480#1"/>
    <trip id="motorcycle46" type="motorcycle_motorcycle" depart="1510.60" departLane="best" from="-1101961674#3" to="-28251222#0"/>
    <trip id="motorcycle47" type="motorcycle_motorcycle" depart="1543.44" departLane="best" from="424323348" to="1170522572#0"/>
    <trip id="motorcycle48" type="motorcycle_motorcycle" depart="1576.27" departLane="best" from="-4412868#2" to="196850608#1"/>
    <trip id="motorcycle49" type="motorcycle_motorcycle" depart="1609.11" departLane="best" from="-1155764611#0" to="1119838636#1"/>
    <trip id="motorcycle50" type="motorcycle_motorcycle" depart="1641.95" departLane="best" from="1119937599#2" to="-176273730#1"/>
    <trip id="motorcycle51" type="motorcycle_motorcycle" depart="1674.79" departLane="best" from="4611710#0" to="-4412868#1"/>
    <trip id="motorcycle52" type="motorcycle_motorcycle" depart="1707.63" departLane="best" from="-114667396#0" to="-25945966"/>
    <trip id="motorcycle53" type="motorcycle_motorcycle" depart="1740.47" departLane="best" departSpeed="max" from="4610524#1" to="196850608#0"/>
    <trip id="motorcycle54" type="motorcycle_motorcycle" depart="1773.31" departLane="best" from="169195795#0" to="210668637#1"/>
    <trip id="motorcycle55" type="motorcycle_motorcycle" depart="1806.15" departLane="best" from="340498982#0" to="-1171295120#1"/>
    <trip id="motorcycle56" type="motorcycle_motorcycle" depart="1838.99" departLane="best" from="1151333059#3" to="66071366#2"/>
    <trip id="motorcycle57" type="motorcycle_motorcycle" depart="1871.83" departLane="best" from="-1101961737" to="-66071366#3"/>
    <trip id="motorcycle58" type="motorcycle_motorcycle" depart="1904.67" departLane="best" from="4611710#2" to="-4588211#1"/>
    <trip id="motorcycle59" type="motorcycle_motorcycle" depart="1937.50" departLane="best" from="-4611708#1" to="-1123106898#0"/>
    <trip id="motorcycle60" type="motorcycle_motorcycle" depart="1970.34" departLane="best" from="4611710#1" to="68647306#5"/>
    <trip id="motorcycle61" type="motorcycle_motorcycle" depart="2003.18" departLane="best" from="-114667396#1" to="1132163645#1"/>
    <trip id="motorcycle62" type="motorcycle_motorcycle" depart="2036.02" departLane="best" from="-1132162834#0" to="-335462916"/>
    <trip id="motorcycle63" type="motorcycle_motorcycle" depart="2068.86" departLane="best" from="1119935543#0" to="132600840#1"/>
    <trip id="motorcycle64" type="motorcycle_motorcycle" depart="2101.70" departLane="best" from="1125869405#3" to="1228446781#1"/>
    <trip id="motorcycle65" type="motorcycle_motorcycle" depart="2134.54" departLane="best" from="-4412868#1" to="4611707#1"/>
    <trip id="motorcycle66" type="motorcycle_motorcycle" depart="2167.38" departLane="best" from="1111982484#0" to="-335462916"/>
    <trip id="motorcycle67" type="motorcycle_motorcycle" depart="2200.22" departLane="best" from="1149417521#1" to="292429062#1"/>
    <trip id="motorcycle68" type="motorcycle_motorcycle" depart="2233.06" departLane="best" from="-292429062#2" to="-4773029#1"/>
    <trip id="motorcycle69" type="motorcycle_motorcycle" depart="2265.89" departLane="best" from="930343902#1" to="196850609#2"/>
    <trip id="motorcycle70" type="motorcycle_motorcycle" depart="2298.73" departLane="best" from="111833185#1" to="-1079386620#0"/>
    <trip id="motorcycle71" type="motorcycle_motorcycle" depart="2331.57" departLane="best" from="43233756#1" to="35557161#3"/>
    <trip id="motorcycle72" type="motorcycle_motorcycle" depart="2364.41" departLane="best" from="-66071366#1" to="154041909"/>
    <trip id="motorcycle73" type="motorcycle_motorcycle" depart="2397.25" departLane="best" from="-35557161#2" to="-35557161#1"/>
    <trip id="motorcycle75" type="motorcycle_motorcycle" depart="2462.93" departLane="best" from="-35557161#1" to="4773029#1"/>
    <trip id="motorcycle76" type="motorcycle_motorcycle" depart="2495.77" departLane="best" departSpeed="max" from="4611699#0" to="1132163645#1"/>
    <trip id="motorcycle77" type="motorcycle_motorcycle" depart="2528.61" departLane="best" from="35578576#1" to="236092221#0"/>
    <trip id="motorcycle78" type="motorcycle_motorcycle" depart="2561.45" departLane="best" from="-326116285#4" to="-158023913#1"/>
    <trip id="motorcycle79" type="motorcycle_motorcycle" depart="2594.29" departLane="best" from="68647306#4" to="132600840#0"/>
    <trip id="motorcycle80" type="motorcycle_motorcycle" depart="2627.12" departLane="best" from="1125869405#1" to="35557161#2"/>
    <trip id="motorcycle81" type="motorcycle_motorcycle" depart="2659.96" departLane="best" from="43233756#1" to="292429062#1"/>
    <trip id="motorcycle82" type="motorcycle_motorcycle" depart="2692.80" departLane="best" from="-1151333056" to="1119838636#1"/>
    <trip id="motorcycle83" type="motorcycle_motorcycle" depart="2725.64" departLane="best" from="1111982484#0" to="1125871262#1"/>
    <trip id="motorcycle84" type="motorcycle_motorcycle" depart="2758.48" departLane="best" from="-292429062#3" to="-23755739#1"/>
    <trip id="motorcycle85" type="motorcycle_motorcycle" depart="2791.32" departLane="best" from="-930343901#1" to="-1151333060"/>
    <trip id="motorcycle86" type="motorcycle_motorcycle" depart="2824.16" departLane="best" from="-1101961674#2" to="1136657260#1"/>
    <trip id="motorcycle87" type="motorcycle_motorcycle" depart="2857.00" departLane="best" from="-24913267#3" to="1119938072#0"/>
    <trip id="motorcycle88" type="motorcycle_motorcycle" depart="2889.84" departLane="best" from="1110749960#1" to="4588222#1"/>
    <trip id="motorcycle89" type="motorcycle_motorcycle" depart="2922.68" departLane="best" from="-437325055#2" to="154041918#2"/>
    <trip id="motorcycle90" type="motorcycle_motorcycle" depart="2955.52" departLane="best" from="111833186#1" to="4610480#1"/>
    <trip id="motorcycle91" type="motorcycle_motorcycle" depart="2988.35" departLane="best" from="1217865061#0" to="-1119938072#0"/>
    <trip id="motorcycle92" type="motorcycle_motorcycle" depart="3021.19" departLane="best" departSpeed="max" from="935142777#0" to="4588219#2"/>
    <trip id="motorcycle93" type="motorcycle_motorcycle" depart="3054.03" departLane="best" from="-874528353#0" to="66071366#1"/>
    <trip id="motorcycle94" type="motorcycle_motorcycle" depart="3086.87" departLane="best" from="-4597324#0" to="23755739#1"/>
    <trip id="motorcycle95" type="motorcycle_motorcycle" depart="3119.71" departLane="best" from="1125871619#4" to="1190781963#1"/>
    <trip id="motorcycle96" type="motorcycle_motorcycle" depart="3152.55" departLane="best" from="-1101961674#2" to="-1123106898#1"/>
    <trip id="motorcycle97" type="motorcycle_motorcycle" depart="3185.39" departLane="best" from="-930343901#1" to="-930343901#0"/>
    <trip id="motorcycle98" type="motorcycle_motorcycle" depart="3218.23" departLane="best" from="-4412868#1" to="35557161#2"/>
    <trip id="motorcycle99" type="motorcycle_motorcycle" depart="3251.07" departLane="best" from="1119937599#2" to="111833186#0"/>
    <trip id="motorcycle100" type="motorcycle_motorcycle" depart="3283.91" departLane="best" from="83517336#4" to="930343901#4"/>
    <trip id="motorcycle101" type="motorcycle_motorcycle" depart="3316.74" departLane="best" from="68711084#1" to="-4611708#2"/>
    <trip id="motorcycle102" type="motorcycle_motorcycle" depart="3349.58" departLane="best" from="874528353#0" to="153698394#3"/>
    <trip id="motorcycle103" type="motorcycle_motorcycle" depart="3382.42" departLane="best" from="1171295120#1" to="-320462164#1"/>
    <trip id="motorcycle104" type="motorcycle_motorcycle" depart="3415.26" departLane="best" from="-1123106322#1" to="153698402#1"/>
    <trip id="motorcycle105" type="motorcycle_motorcycle" depart="3448.10" departLane="best" from="-114667396#1" to="4597324#2"/>
    <trip id="motorcycle106" type="motorcycle_motorcycle" depart="3480.94" departLane="best" from="210668637#0" to="753316506#1"/>
    <trip id="motorcycle107" type="motorcycle_motorcycle" depart="3513.78" departLane="best" from="-1136657259#0" to="292429056#1"/>
    <trip id="motorcycle108" type="motorcycle_motorcycle" depart="3546.62" departLane="best" from="320420913#0" to="23755739#1"/>
    <trip id="motorcycle109" type="motorcycle_motorcycle" depart="3579.46" departLane="best" from="-35557161#4" to="42102542#1"/>
    <trip id="motorcycle110" type="motorcycle_motorcycle" depart="3612.30" departLane="best" departSpeed="max" from="465376240#0" to="-43231842#3"/>
    <trip id="motorcycle111" type="motorcycle_motorcycle" depart="3645.14" departLane="best" from="320420913#0" to="171423001#3"/>
    <trip id="motorcycle112" type="motorcycle_motorcycle" depart="3677.97" departLane="best" from="1110749336#1" to="153698402#1"/>
    <trip id="motorcycle113" type="motorcycle_motorcycle" depart="3710.81" departLane="best" from="1151333059#2" to="66071373#1"/>
    <trip id="motorcycle114" type="motorcycle_motorcycle" depart="3743.65" departLane="best" from="-292429063" to="25776568#2"/>
    <trip id="motorcycle115" type="motorcycle_motorcycle" depart="3776.49" departLane="best" from="35578576#1" to="-1110748916#1"/>
    <trip id="motorcycle116" type="motorcycle_motorcycle" depart="3809.33" departLane="best" from="236092221#0" to="-4611710#0"/>
    <trip id="motorcycle117" type="motorcycle_motorcycle" depart="3842.17" departLane="best" from="4611710#2" to="-320462163#0"/>
    <trip id="motorcycle118" type="motorcycle_motorcycle" depart="3875.01" departLane="best" from="-1132163645#1" to="1123106898#1"/>
    <trip id="motorcycle119" type="motorcycle_motorcycle" depart="3907.85" departLane="best" departSpeed="max" from="935142777#0" to="930343902#0"/>
    <trip id="motorcycle120" type="motorcycle_motorcycle" depart="3940.69" departLane="best" departSpeed="max" from="-1132164217#3" to="1190781963#1"/>
    <trip id="motorcycle121" type="motorcycle_motorcycle" depart="3973.53" departLane="best" from="-4412868#1" to="66071373#1"/>
    <trip id="motorcycle122" type="motorcycle_motorcycle" depart="4006.36" departLane="best" from="4611711#0" to="4611708#2"/>
    <trip id="motorcycle123" type="motorcycle_motorcycle" depart="4039.20" departLane="best" from="-874528353#1" to="23017852#1"/>
    <trip id="motorcycle124" type="motorcycle_motorcycle" depart="4072.04" departLane="best" from="4588211#1" to="24913267#1"/>
    <trip id="motorcycle125" type="motorcycle_motorcycle" depart="4104.88" departLane="best" from="169195795#1" to="930343901#1"/>
    <trip id="motorcycle126" type="motorcycle_motorcycle" depart="4137.72" departLane="best" from="210668637#0" to="-109902441"/>
    <trip id="motorcycle127" type="motorcycle_motorcycle" depart="4170.56" departLane="best" from="-4402037#0" to="-4611710#0"/>
    <trip id="motorcycle128" type="motorcycle_motorcycle" depart="4203.40" departLane="best" from="-23017852#0" to="681299268#1"/>
    <trip id="motorcycle129" type="motorcycle_motorcycle" depart="4236.24" departLane="best" from="-1233798019" to="-1176516118#1"/>
    <trip id="motorcycle130" type="motorcycle_motorcycle" depart="4269.08" departLane="best" from="-1155757392" to="1249342905"/>
    <trip id="motorcycle131" type="motorcycle_motorcycle" depart="4301.92" departLane="best" from="-4588219#1" to="168935756#0"/>
    <trip id="motorcycle132" type="motorcycle_motorcycle" depart="4334.76" departLane="best" from="-292429056#2" to="-326116285#4"/>
    <trip id="motorcycle133" type="motorcycle_motorcycle" depart="4367.59" departLane="best" from="196850607#0" to="-4412868#1"/>
    <trip id="motorcycle134" type="motorcycle_motorcycle" depart="4400.43" departLane="best" from="1126234503#0" to="-4773029#1"/>
    <trip id="motorcycle135" type="motorcycle_motorcycle" depart="4433.27" departLane="best" from="-1136657259#0" to="-1151333059#0"/>
    <trip id="motorcycle136" type="motorcycle_motorcycle" depart="4466.11" departLane="best" from="1111982484#0" to="-4588220#1"/>
    <trip id="motorcycle137" type="motorcycle_motorcycle" depart="4498.95" departLane="best" from="1079386660" to="340498982#0"/>
    <trip id="motorcycle138" type="motorcycle_motorcycle" depart="4531.79" departLane="best" from="196850607#1" to="-4412868#1"/>
    <trip id="motorcycle139" type="motorcycle_motorcycle" depart="4564.63" departLane="best" from="320462164#6" to="1228446781#1"/>
    <trip id="motorcycle140" type="motorcycle_motorcycle" depart="4597.47" departLane="best" from="1113726463" to="-109902441"/>
    <trip id="motorcycle141" type="motorcycle_motorcycle" depart="4630.31" departLane="best" departSpeed="max" from="-1132164217#3" to="-4611710#0"/>
    <trip id="motorcycle142" type="motorcycle_motorcycle" depart="4663.15" departLane="best" from="47935842" to="1217865061#0"/>
    <trip id="motorcycle143" type="motorcycle_motorcycle" depart="4695.99" departLane="best" from="4588219#1" to="153698402#1"/>
    <trip id="motorcycle144" type="motorcycle_motorcycle" depart="4728.82" departLane="best" departSpeed="max" from="-15971189" to="132600840#0"/>
    <trip id="motorcycle145" type="motorcycle_motorcycle" depart="4761.66" departLane="best" from="-4611708#2" to="461526152#1"/>
    <trip id="motorcycle146" type="motorcycle_motorcycle" depart="4794.50" departLane="best" departSpeed="max" from="43231842#0" to="4610480#1"/>
    <trip id="motorcycle147" type="motorcycle_motorcycle" depart="4827.34" departLane="best" from="4773029#3" to="-335462916"/>
    <trip id="motorcycle148" type="motorcycle_motorcycle" depart="4860.18" departLane="best" from="437325055#1" to="-1155762025#1"/>
    <trip id="motorcycle149" type="motorcycle_motorcycle" depart="4893.02" departLane="best" from="35557161#4" to="4611710#1"/>
    <trip id="motorcycle150" type="motorcycle_motorcycle" depart="4925.86" departLane="best" from="-1101961674#4" to="171423001#3"/>
    <trip id="motorcycle151" type="motorcycle_motorcycle" depart="4958.70" departLane="best" from="68711084#1" to="66071366#3"/>
    <trip id="motorcycle152" type="motorcycle_motorcycle" depart="4991.54" departLane="best" from="4611699#1" to="874528353#2"/>
    <trip id="motorcycle153" type="motorcycle_motorcycle" depart="5024.38" departLane="best" from="437325056#0" to="-4611710#0"/>
    <trip id="motorcycle154" type="motorcycle_motorcycle" depart="5057.21" departLane="best" from="-1105574291#0" to="292429063"/>
    <trip id="motorcycle155" type="motorcycle_motorcycle" depart="5090.05" departLane="best" from="-4773029#3" to="66071366#4"/>
    <trip id="motorcycle156" type="motorcycle_motorcycle" depart="5122.89" departLane="best" from="43231842#2" to="4610524#1"/>
    <trip id="motorcycle157" type="motorcycle_motorcycle" depart="5155.73" departLane="best" from="-437325056#1" to="-4588211#0"/>
    <trip id="motorcycle158" type="motorcycle_motorcycle" depart="5188.57" departLane="best" from="35578576#1" to="-1159149106#0"/>
    <trip id="motorcycle159" type="motorcycle_motorcycle" depart="5221.41" departLane="best" from="4611708#2" to="4610480#1"/>
    <trip id="motorcycle160" type="motorcycle_motorcycle" depart="5254.25" departLane="best" from="-35557143#0" to="4402037#0"/>
    <trip id="motorcycle161" type="motorcycle_motorcycle" depart="5287.09" departLane="best" from="1119938072#1" to="-4611710#2"/>
    <trip id="motorcycle162" type="motorcycle_motorcycle" depart="5319.93" departLane="best" departSpeed="max" from="43231842#0" to="-35578576#0"/>
    <trip id="motorcycle163" type="motorcycle_motorcycle" depart="5352.77" departLane="best" departSpeed="max" from="-1105574290" to="292429062#3"/>
    <trip id="motorcycle164" type="motorcycle_motorcycle" depart="5385.61" departLane="best" from="-4773029#1" to="4610524#1"/>
    <trip id="motorcycle165" type="motorcycle_motorcycle" depart="5418.44" departLane="best" from="-874528353#0" to="-4588222#1"/>
    <trip id="motorcycle166" type="motorcycle_motorcycle" depart="5451.28" departLane="best" from="196850608#0" to="1110749960#1"/>
    <trip id="motorcycle167" type="motorcycle_motorcycle" depart="5484.12" departLane="best" from="-930343901#0" to="1170522567#0"/>
    <trip id="motorcycle168" type="motorcycle_motorcycle" depart="5516.96" departLane="best" from="68647306#6" to="-1176516118#1"/>
    <trip id="motorcycle169" type="motorcycle_motorcycle" depart="5549.80" departLane="best" from="874528353#1" to="-25945966"/>
    <trip id="motorcycle170" type="motorcycle_motorcycle" depart="5582.64" departLane="best" from="-85255869#2" to="-4412868#2"/>
    <trip id="motorcycle171" type="motorcycle_motorcycle" depart="5615.48" departLane="best" from="1155757393#1" to="1119838636#1"/>
    <trip id="motorcycle172" type="motorcycle_motorcycle" depart="5648.32" departLane="best" from="-292429062#3" to="-4773029#1"/>
    <trip id="motorcycle173" type="motorcycle_motorcycle" depart="5681.16" departLane="best" from="-930343901#4" to="153698394#2"/>
    <trip id="motorcycle174" type="motorcycle_motorcycle" depart="5714.00" departLane="best" from="-4402014#3" to="251884680#0"/>
    <trip id="motorcycle175" type="motorcycle_motorcycle" depart="5746.83" departLane="best" from="1151333059#3" to="66071366#1"/>
    <trip id="motorcycle176" type="motorcycle_motorcycle" depart="5779.67" departLane="best" from="1149417521#1" to="-28251222#0"/>
    <trip id="motorcycle177" type="motorcycle_motorcycle" depart="5812.51" departLane="best" from="320462164#6" to="236092221#0"/>
    <trip id="motorcycle178" type="motorcycle_motorcycle" depart="5845.35" departLane="best" from="-85255869#2" to="1132163645#1"/>
    <trip id="motorcycle179" type="motorcycle_motorcycle" depart="5878.19" departLane="best" from="-23017852#1" to="-474362271"/>
    <trip id="motorcycle180" type="motorcycle_motorcycle" depart="5911.03" departLane="best" from="4611710#1" to="4597324#0"/>
    <trip id="motorcycle181" type="motorcycle_motorcycle" depart="5943.87" departLane="best" from="292429056#3" to="-4611710#0"/>
    <trip id="motorcycle182" type="motorcycle_motorcycle" depart="5976.71" departLane="best" from="-4611708#2" to="1111982484#1"/>
    <trip id="motorcycle183" type="motorcycle_motorcycle" depart="6009.55" departLane="best" from="-1101961674#2" to="-4611708#1"/>
    <trip id="motorcycle184" type="motorcycle_motorcycle" depart="6042.39" departLane="best" from="-1190781965" to="111833185#1"/>
    <trip id="motorcycle185" type="motorcycle_motorcycle" depart="6075.23" departLane="best" from="68647306#7" to="-23755739#2"/>
    <trip id="motorcycle186" type="motorcycle_motorcycle" depart="6108.06" departLane="best" from="47935842" to="171423001#1"/>
    <trip id="motorcycle187" type="motorcycle_motorcycle" depart="6140.90" departLane="best" from="-4611706#1" to="1228446781#1"/>
    <trip id="motorcycle188" type="motorcycle_motorcycle" depart="6173.74" departLane="best" from="1151333059#3" to="4610524#0"/>
    <trip id="motorcycle189" type="motorcycle_motorcycle" depart="6206.58" departLane="best" from="1115641285#1" to="153698394#3"/>
    <trip id="motorcycle190" type="motorcycle_motorcycle" depart="6239.42" departLane="best" from="210668637#0" to="-108031933#1"/>
    <trip id="motorcycle191" type="motorcycle_motorcycle" depart="6272.26" departLane="best" from="111833186#0" to="1190781963#1"/>
    <trip id="motorcycle192" type="motorcycle_motorcycle" depart="6305.10" departLane="best" from="1125869405#1" to="465376239"/>
    <trip id="motorcycle193" type="motorcycle_motorcycle" depart="6337.94" departLane="best" departSpeed="max" from="43231842#0" to="-23755961"/>
    <trip id="motorcycle194" type="motorcycle_motorcycle" depart="6370.78" departLane="best" from="-114667396#1" to="-1151333059#2"/>
    <trip id="motorcycle195" type="motorcycle_motorcycle" depart="6403.62" departLane="best" from="196850608#2" to="-681299268#1"/>
    <trip id="motorcycle196" type="motorcycle_motorcycle" depart="6436.46" departLane="best" from="4402037#0" to="320462164#6"/>
    <trip id="motorcycle197" type="motorcycle_motorcycle" depart="6469.29" departLane="best" from="236092221#1" to="35557161#3"/>
    <trip id="motorcycle198" type="motorcycle_motorcycle" depart="6502.13" departLane="best" from="-292429062#2" to="1105574291#0"/>
    <trip id="motorcycle199" type="motorcycle_motorcycle" depart="6534.97" departLane="best" from="43231842#2" to="1125871619#4"/>
    <trip id="motorcycle200" type="motorcycle_motorcycle" depart="6567.81" departLane="best" from="-4597324#1" to="-1136657258#0"/>
    <trip id="motorcycle201" type="motorcycle_motorcycle" depart="6600.65" departLane="best" from="-1105574291#2" to="194069450#0"/>
    <trip id="motorcycle202" type="motorcycle_motorcycle" depart="6633.49" departLane="best" from="-292429056#2" to="24242892#2"/>
    <trip id="motorcycle203" type="motorcycle_motorcycle" depart="6666.33" departLane="best" from="-1127602336" to="-43231842#2"/>
    <trip id="motorcycle204" type="motorcycle_motorcycle" depart="6699.17" departLane="best" from="210668637#1" to="-108031933#1"/>
    <trip id="motorcycle205" type="motorcycle_motorcycle" depart="6732.01" departLane="best" from="335462916" to="340498976#8"/>
    <trip id="motorcycle206" type="motorcycle_motorcycle" depart="6764.85" departLane="best" from="1155757393#1" to="111833186#1"/>
    <trip id="motorcycle207" type="motorcycle_motorcycle" depart="6797.68" departLane="best" from="23755739#2" to="753316505#1"/>
    <trip id="motorcycle208" type="motorcycle_motorcycle" depart="6830.52" departLane="best" from="1151333059#0" to="-1119938072#0"/>
    <trip id="motorcycle209" type="motorcycle_motorcycle" depart="6863.36" departLane="best" from="-437325055#2" to="4597324#0"/>
    <trip id="motorcycle210" type="motorcycle_motorcycle" depart="6896.20" departLane="best" from="1119937599#3" to="-43231842#2"/>