<?xml version="1.0" encoding="UTF-8"?>

<!-- generated on 2024-05-06 21:25:25.074858 by osmWebWizard.py v1_19_0+0000-baa66a0f364
<configuration>
    <net-file value="F:\SUMO\OptimalEmission-SUMO-ReinforcementLearning\2024-05-06-21-25-06\osm.net.xml.gz"/>
    <output-trip-file value="F:\SUMO\OptimalEmission-SUMO-ReinforcementLearning\2024-05-06-21-25-06\osm.truck.trips.xml"/>
    <route-file value="F:\SUMO\OptimalEmission-SUMO-ReinforcementLearning\2024-05-06-21-25-06\osm.truck.rou.xml"/>
    <prefix value="truck"/>
    <trip-attributes value="departLane=&quot;best&quot;"/>
    <fringe-start-attributes value="departSpeed=&quot;max&quot;"/>
    <vehicle-class value="truck"/>
    <fringe-factor value="5"/>
    <vclass value="truck"/>
    <via-edge-types value="highway.motorway,highway.motorway_link,highway.trunk_link,highway.primary_link,highway.secondary_link,highway.tertiary_link"/>
    <min-distance value="600.0"/>
    <min-distance.fringe value="10.0"/>
    <remove-loops value="True"/>
    <validate value="True"/>
    <end value="60000.0"/>
    <insertion-density value="8.0"/>
</configuration>
-->

<!-- generated on 2024-05-06 21:25:24 by Eclipse SUMO duarouter Version 1.19.0
<configuration xmlns:xsi="http://www.w3.org/2001/XMLSchema-instance" xsi:noNamespaceSchemaLocation="http://sumo.dlr.de/xsd/duarouterConfiguration.xsd">

    <input>
        <net-file value="F:\SUMO\OptimalEmission-SUMO-ReinforcementLearning\2024-05-06-21-25-06\osm.net.xml.gz"/>
        <route-files value="F:\SUMO\OptimalEmission-SUMO-ReinforcementLearning\2024-05-06-21-25-06\osm.truck.trips.xml"/>
    </input>

    <output>
        <output-file value="F:\SUMO\OptimalEmission-SUMO-ReinforcementLearning\2024-05-06-21-25-06\osm.truck.trips.xml.tmp"/>
        <alternatives-output value="NUL"/>
        <write-trips value="true"/>
    </output>

    <processing>
        <remove-loops value="true"/>
    </processing>

    <time>
        <begin value="0.0"/>
        <end value="60000.0"/>
    </time>

    <report>
        <no-warnings value="true"/>
        <ignore-errors value="true"/>
        <no-step-log value="true"/>
    </report>

</configuration>
-->

<routes xmlns:xsi="http://www.w3.org/2001/XMLSchema-instance" xsi:noNamespaceSchemaLocation="http://sumo.dlr.de/xsd/routes_file.xsd">
    <vType id="truck_truck" vClass="truck"/>
    <trip id="truck0" type="truck_truck" depart="0.00" departLane="best" from="196850607#0" to="1101961735#1"/>
    <trip id="truck1" type="truck_truck" depart="16.42" departLane="best" from="-4588219#2" to="-35578576#0"/>
    <trip id="truck2" type="truck_truck" depart="32.84" departLane="best" from="320462164#0" to="23755950#0"/>
    <trip id="truck3" type="truck_truck" depart="49.26" departLane="best" departSpeed="max" from="465376240#0" to="1151333056"/>
    <trip id="truck4" type="truck_truck" depart="65.68" departLane="best" from="320462164#2" to="1151333056"/>
    <trip id="truck5" type="truck_truck" depart="82.10" departLane="best" departSpeed="max" from="-1105574290" to="-320462164#1"/>
    <trip id="truck6" type="truck_truck" depart="98.52" departLane="best" from="437325055#1" to="-109902441"/>
    <trip id="truck7" type="truck_truck" depart="114.94" departLane="best" from="43231842#3" to="24242892#3"/>
    <trip id="truck8" type="truck_truck" depart="131.36" departLane="best" from="83517336#4" to="85255869#1"/>
    <trip id="truck9" type="truck_truck" depart="147.78" departLane="best" from="-114667396#2" to="-1155757392"/>
    <trip id="truck10" type="truck_truck" depart="164.20" departLane="best" from="-4597324#2" to="15971189"/>
    <trip id="truck11" type="truck_truck" depart="180.61" departLane="best" from="43233756#1" to="-1171295120#0"/>
    <trip id="truck12" type="truck_truck" depart="197.03" departLane="best" from="4588211#0" to="171423001#1"/>
    <trip id="truck13" type="truck_truck" depart="213.45" departLane="best" departSpeed="max" from="4611699#0" to="153698380#1"/>
    <trip id="truck15" type="truck_truck" depart="246.29" departLane="best" from="-1151333056" to="4597324#0"/>
    <trip id="truck16" type="truck_truck" depart="262.71" departLane="best" from="68711084#1" to="1105574291#0"/>
    <trip id="truck17" type="truck_truck" depart="279.13" departLane="best" from="4588222#2" to="340498976#8"/>
    <trip id="truck18" type="truck_truck" depart="295.55" departLane="best" from="-4611706#1" to="-4588211#1"/>
    <trip id="truck19" type="truck_truck" depart="311.97" departLane="best" from="-292429062#3" to="66071366#4"/>
    <trip id="truck20" type="truck_truck" depart="328.39" departLane="best" from="66071366#1" to="-1125869405#1"/>
    <trip id="truck21" type="truck_truck" depart="344.81" departLane="best" from="1252995263" to="-4412868#1"/>
    <trip id="truck22" type="truck_truck" depart="361.23" departLane="best" from="153698402#1" to="4611712"/>
    <trip id="truck23" type="truck_truck" depart="377.65" departLane="best" from="-930343901#3" to="-4611710#2"/>
    <trip id="truck24" type="truck_truck" depart="394.07" departLane="best" from="-1101961674#3" to="25776568#2"/>
    <trip id="truck25" type="truck_truck" depart="410.49" departLane="best" from="424323348" to="-1171295120#1"/>
    <trip id="truck26" type="truck_truck" depart="426.91" departLane="best" from="1155757393#1" to="1119838636#1"/>
    <trip id="truck27" type="truck_truck" depart="443.33" departLane="best" from="111833186#0" to="68647306#4"/>
    <trip id="truck28" type="truck_truck" depart="459.75" departLane="best" from="4611710#1" to="-4412868#2"/>
    <trip id="truck29" type="truck_truck" depart="476.17" departLane="best" from="-1127602336" to="-25945966"/>
    <trip id="truck31" type="truck_truck" depart="509.01" departLane="best" departSpeed="max" from="-4610480#1" to="196850607#0"/>
    <trip id="truck32" type="truck_truck" depart="525.42" departLane="best" departSpeed="max" from="35578576#0" to="1164203952#0"/>
    <trip id="truck33" type="truck_truck" depart="541.84" departLane="best" from="1151333059#3" to="-474362271"/>
    <trip id="truck35" type="truck_truck" depart="574.68" departLane="best" departSpeed="max" from="4610524#1" to="-1123106322#1"/>
    <trip id="truck36" type="truck_truck" depart="591.10" departLane="best" from="4611710#2" to="681299268#1"/>
    <trip id="truck37" type="truck_truck" depart="607.52" departLane="best" from="1123106516" to="1228446781#1"/>
    <trip id="truck38" type="truck_truck" depart="623.94" departLane="best" departSpeed="max" from="935142777#0" to="196850609#0"/>
    <trip id="truck39" type="truck_truck" depart="640.36" departLane="best" departSpeed="max" from="-4611712" to="154041909"/>
    <trip id="truck40" type="truck_truck" depart="656.78" departLane="best" from="-1127602336" to="176043797"/>
    <trip id="truck41" type="truck_truck" depart="673.20" departLane="best" departSpeed="max" from="4611699#0" to="1132163645#1"/>
    <trip id="truck42" type="truck_truck" depart="689.62" departLane="best" from="-35557161#3" to="236092221#0"/>
    <trip id="truck43" type="truck_truck" depart="706.04" departLane="best" from="68647306#6" to="131577613#2"/>
    <trip id="truck44" type="truck_truck" depart="722.46" departLane="best" from="-1101961674#4" to="1125871619#2"/>
    <trip id="truck45" type="truck_truck" depart="738.88" departLane="best" departSpeed="max" from="4611699#0" to="-437325055#2"/>
    <trip id="truck46" type="truck_truck" depart="755.30" departLane="best" departSpeed="max" from="-23755950#2" to="1119938072#0"/>
    <trip id="truck47" type="truck_truck" depart="771.72" departLane="best" from="-1101961674#3" to="4597324#1"/>
    <trip id="truck48" type="truck_truck" depart="788.14" departLane="best" departSpeed="max" from="1238797610" to="-111833186#1"/>
    <trip id="truck49" type="truck_truck" depart="804.56" departLane="best" departSpeed="max" from="935142777#0" to="4588219#3"/>
    <trip id="truck50" type="truck_truck" depart="820.98" departLane="best" from="-4597324#2" to="-23755961"/>
    <trip id="truck51" type="truck_truck" depart="837.40" departLane="best" from="1125871262#1" to="35557161#1"/>
    <trip id="truck52" type="truck_truck" depart="853.82" departLane="best" from="-840229277#1" to="894814132"/>
    <trip id="truck53" type="truck_truck" depart="870.24" departLane="best" from="111833186#0" to="1119837993"/>
    <trip id="truck54" type="truck_truck" depart="886.65" departLane="best" departSpeed="max" from="1238797610" to="25776568#2"/>
    <trip id="truck55" type="truck_truck" depart="903.07" departLane="best" departSpeed="max" from="-15971189" to="-4611708#2"/>
    <trip id="truck56" type="truck_truck" depart="919.49" departLane="best" from="1132163645#1" to="4597324#3"/>
    <trip id="truck57" type="truck_truck" depart="935.91" departLane="best" departSpeed="max" from="-15971189" to="-176273730#1"/>
    <trip id="truck58" type="truck_truck" depart="952.33" departLane="best" from="-35557161#1" to="132600840#1"/>
    <trip id="truck59" type="truck_truck" depart="968.75" departLane="best" departSpeed="max" from="465376240#0" to="-43231842#2"/>
    <trip id="truck60" type="truck_truck" depart="985.17" departLane="best" from="320420913#0" to="171423001#2"/>
    <trip id="truck61" type="truck_truck" depart="1001.59" departLane="best" from="-292429056#2" to="251884680#1"/>
    <trip id="truck62" type="truck_truck" depart="1018.01" departLane="best" from="-35557161#3" to="1110752486"/>
    <trip id="truck63" type="truck_truck" depart="1034.43" departLane="best" from="-4611706#1" to="320420912#2"/>
    <trip id="truck64" type="truck_truck" depart="1050.85" departLane="best" from="-1132162834#0" to="-1125869405#0"/>
    <trip id="truck65" type="truck_truck" depart="1067.27" departLane="best" departSpeed="max" from="935142777#0" to="930343901#4"/>
    <trip id="truck66" type="truck_truck" depart="1083.69" departLane="best" from="-4412868#1" to="530085625#0"/>
    <trip id="truck67" type="truck_truck" depart="1100.11" departLane="best" from="-1101961735#0" to="930343901#0"/>
    <trip id="truck68" type="truck_truck" depart="1116.53" departLane="best" from="-4402037#0" to="-4611710#0"/>
    <trip id="truck69" type="truck_truck" depart="1132.95" departLane="best" departSpeed="max" from="-1228446781#4" to="1126241276#1"/>
    <trip id="truck70" type="truck_truck" depart="1149.37" departLane="best" from="1151333059#2" to="1249342905"/>
    <trip id="truck71" type="truck_truck" depart="1165.79" departLane="best" from="-4588219#1" to="15971189"/>
    <trip id="truck72" type="truck_truck" depart="1182.21" departLane="best" from="28251222#1" to="326116286#0"/>
    <trip id="truck73" type="truck_truck" depart="1198.63" departLane="best" from="1125871619#2" to="4611712"/>
    <trip id="truck74" type="truck_truck" depart="1215.05" departLane="best" from="-1101961674#4" to="4597324#0"/>
    <trip id="truck75" type="truck_truck" depart="1231.46" departLane="best" from="1079386660" to="340498976#2"/>
    <trip id="truck76" type="truck_truck" depart="1247.88" departLane="best" departSpeed="max" from="4610524#1" to="4611712"/>
    <trip id="truck77" type="truck_truck" depart="1264.30" departLane="best" departSpeed="max" from="35578576#0" to="4611708#1"/>
    <trip id="truck79" type="truck_truck" depart="1297.14" departLane="best" from="4611699#1" to="874528353#0"/>
    <trip id="truck80" type="truck_truck" depart="1313.56" departLane="best" from="437325055#1" to="4611707#1"/>
    <trip id="truck81" type="truck_truck" depart="1329.98" departLane="best" departSpeed="max" from="-1105574290" to="292429062#0"/>
    <trip id="truck82" type="truck_truck" depart="1346.40" departLane="best" departSpeed="max" from="-4611712" to="527714921#1"/>
    <trip id="truck83" type="truck_truck" depart="1362.82" departLane="best" from="4611708#2" to="4610480#1"/>
    <trip id="truck84" type="truck_truck" depart="1379.24" departLane="best" from="1119935543#0" to="-4611711#0"/>
    <trip id="truck85" type="truck_truck" depart="1395.66" departLane="best" departSpeed="max" from="43231842#0" to="-35578576#0"/>
    <trip id="truck86" type="truck_truck" depart="1412.08" departLane="best" departSpeed="max" from="-1105574290" to="292429062#3"/>
    <trip id="truck87" type="truck_truck" depart="1428.50" departLane="best" from="-4611711#0" to="4610480#1"/>
    <trip id="truck88" type="truck_truck" depart="1444.92" departLane="best" from="874528353#0" to="4597324#1"/>
    <trip id="truck89" type="truck_truck" depart="1461.34" departLane="best" from="-930343901#2" to="-1171295120#1"/>
    <trip id="truck90" type="truck_truck" depart="1477.76" departLane="best" from="68711084#1" to="1126241276#1"/>
    <trip id="truck91" type="truck_truck" depart="1494.18" departLane="best" from="874528353#2" to="-25945966"/>
    <trip id="truck92" type="truck_truck" depart="1510.60" departLane="best" from="-1151333060" to="1119838636#1"/>
    <trip id="truck93" type="truck_truck" depart="1527.02" departLane="best" from="-292429062#3" to="-4773029#3"/>
    <trip id="truck94" type="truck_truck" depart="1543.44" departLane="best" departSpeed="max" from="15977422#0" to="-1151333059#2"/>
    <trip id="truck95" type="truck_truck" depart="1559.86" departLane="best" from="437325056#0" to="251884680#0"/>
    <trip id="truck96" type="truck_truck" depart="1576.27" departLane="best" from="1151333059#3" to="4773029#4"/>
    <trip id="truck97" type="truck_truck" depart="1592.69" departLane="best" from="1159149106#0" to="25776568#2"/>
    <trip id="truck98" type="truck_truck" depart="1609.11" departLane="best" from="-23017852#0" to="-753316506#1"/>
    <trip id="truck99" type="truck_truck" depart="1625.53" departLane="best" departSpeed="max" from="4610524#1" to="4597324#3"/>
    <trip id="truck100" type="truck_truck" depart="1641.95" departLane="best" from="292429056#1" to="-4611710#1"/>
    <trip id="truck101" type="truck_truck" depart="1658.37" departLane="best" from="-1190781962#0" to="1119837993"/>
    <trip id="truck102" type="truck_truck" depart="1674.79" departLane="best" from="690322561" to="23755950#0"/>
    <trip id="truck103" type="truck_truck" depart="1691.21" departLane="best" departSpeed="max" from="-4610480#1" to="1228446781#1"/>
    <trip id="truck104" type="truck_truck" depart="1707.63" departLane="best" from="1151333059#3" to="4610524#0"/>
    <trip id="truck105" type="truck_truck" depart="1724.05" departLane="best" from="1123105979#1" to="4611712"/>
    <trip id="truck106" type="truck_truck" depart="1740.47" departLane="best" departSpeed="max" from="43231842#0" to="24913267#1"/>
    <trip id="truck107" type="truck_truck" depart="1756.89" departLane="best" departSpeed="max" from="-1132164217#3" to="-1151333060"/>
    <trip id="truck108" type="truck_truck" depart="1773.31" departLane="best" departSpeed="max" from="171484594#0" to="85255869#1"/>
    <trip id="truck109" type="truck_truck" depart="1789.73" departLane="best" from="-24913267#3" to="1101961735#1"/>
    <trip id="truck110" type="truck_truck" depart="1806.15" departLane="best" from="4610524#0" to="-1136657258#0"/>
    <trip id="truck111" type="truck_truck" depart="1822.57" departLane="best" departSpeed="max" from="109902441" to="176043797"/>
    <trip id="truck112" type="truck_truck" depart="1838.99" departLane="best" from="-23755961" to="24242892#2"/>
    <trip id="truck113" type="truck_truck" depart="1855.41" departLane="best" from="1151333059#2" to="1119837993"/>
    <trip id="truck114" type="truck_truck" depart="1871.83" departLane="best" from="43231842#3" to="4597324#3"/>
    <trip id="truck115" type="truck_truck" depart="1888.25" departLane="best" from="111833186#1" to="-43231842#1"/>
    <trip id="truck116" type="truck_truck" depart="1904.67" departLane="best" from="-23017852#1" to="930343901#0"/>
    <trip id="truck117" type="truck_truck" depart="1921.08" departLane="best" from="292429056#1" to="1151333056"/>
    <trip id="truck118" type="truck_truck" depart="1937.50" departLane="best" from="4588211#1" to="1228446781#1"/>
    <trip id="truck119" type="truck_truck" depart="1953.92" departLane="best" from="4773029#1" to="292429063"/>
    <trip id="truck120" type="truck_truck" depart="1970.34" departLane="best" departSpeed="max" from="171484594#0" to="-4588222#1"/>
    <trip id="truck121" type="truck_truck" depart="1986.76" departLane="best" departSpeed="max" from="-1132164217#3" to="4610524#0"/>
    <trip id="truck122" type="truck_truck" depart="2003.18" departLane="best" from="4588211#1" to="-66071366#2"/>
    <trip id="truck123" type="truck_truck" depart="2019.60" departLane="best" from="1149417521#1" to="-171484594#1"/>
    <trip id="truck124" type="truck_truck" depart="2036.02" departLane="best" from="-35557143#2" to="24242892#0"/>
    <trip id="truck125" type="truck_truck" depart="2052.44" departLane="best" departSpeed="max" from="109902441" to="1217865061#0"/>
    <trip id="truck126" type="truck_truck" depart="2068.86" departLane="best" from="-1101961674#2" to="4611712"/>
    <trip id="truck127" type="truck_truck" depart="2085.28" departLane="best" departSpeed="max" from="4611699#0" to="326116285#7"/>
    <trip id="truck128" type="truck_truck" depart="2101.70" departLane="best" from="-66071366#1" to="154041920"/>
    <trip id="truck129" type="truck_truck" depart="2118.12" departLane="best" from="-1101961674#2" to="292429063"/>
    <trip id="truck130" type="truck_truck" depart="2134.54" departLane="best" from="1176516118#1" to="15971189"/>
    <trip id="truck131" type="truck_truck" depart="2150.96" departLane="best" from="-326116285#4" to="-4611710#2"/>
    <trip id="truck132" type="truck_truck" depart="2167.38" departLane="best" from="1119937599#3" to="-15977422#1"/>
    <trip id="truck133" type="truck_truck" depart="2183.80" departLane="best" from="930343901#1" to="1253429075"/>
    <trip id="truck134" type="truck_truck" depart="2200.22" departLane="best" departSpeed="max" from="-1228446781#4" to="-108031933#1"/>
    <trip id="truck135" type="truck_truck" depart="2216.64" departLane="best" from="-111833186#0" to="1105574290"/>
    <trip id="truck136" type="truck_truck" depart="2233.06" departLane="best" from="342968607#1" to="1105574290"/>
    <trip id="truck138" type="truck_truck" depart="2265.89" departLane="best" from="437325055#1" to="114667396#3"/>
    <trip id="truck139" type="truck_truck" depart="2282.31" departLane="best" departSpeed="max" from="-1105574290" to="-1176516118#1"/>
    <trip id="truck140" type="truck_truck" depart="2298.73" departLane="best" departSpeed="max" from="935142777#0" to="-930343901#2"/>
    <trip id="truck141" type="truck_truck" depart="2315.15" departLane="best" from="196850609#0" to="154041920"/>
    <trip id="truck142" type="truck_truck" depart="2331.57" departLane="best" departSpeed="max" from="-1105574290" to="210668637#1"/>
    <trip id="truck143" type="truck_truck" depart="2347.99" departLane="best" from="210668637#0" to="15971189"/>
    <trip id="truck144" type="truck_truck" depart="2364.41" departLane="best" from="335462916" to="1126241276#1"/>
    <trip id="truck145" type="truck_truck" depart="2380.83" departLane="best" from="1151333059#2" to="1101961735#1"/>
    <trip id="truck146" type="truck_truck" depart="2397.25" departLane="best" from="24242892#1" to="176043797"/>
    <trip id="truck147" type="truck_truck" depart="2413.67" departLane="best" from="-1151333056" to="340498976#3"/>
    <trip id="truck148" type="truck_truck" depart="2430.09" departLane="best" from="194069450#0" to="-4588211#0"/>
    <trip id="truck149" type="truck_truck" depart="2446.51" departLane="best" departSpeed="max" from="25945965" to="1119838636#1"/>
    <trip id="truck150" type="truck_truck" depart="2462.93" departLane="best" from="320420916#0" to="753316506#1"/>
    <trip id="truck151" type="truck_truck" depart="2479.35" departLane="best" from="1159149106#0" to="1132163645#4"/>
    <trip id="truck152" type="truck_truck" depart="2495.77" departLane="best" from="1110749336#1" to="-1171295120#0"/>
    <trip id="truck153" type="truck_truck" depart="2512.19" departLane="best" from="4588211#0" to="4597324#3"/>
    <trip id="truck154" type="truck_truck" depart="2528.61" departLane="best" from="4588211#1" to="1151333056"/>
    <trip id="truck155" type="truck_truck" depart="2545.03" departLane="best" from="1119937599#1" to="168937986"/>
    <trip id="truck156" type="truck_truck" depart="2561.45" departLane="best" from="4610524#0" to="-25945966"/>
    <trip id="truck157" type="truck_truck" depart="2577.87" departLane="best" departSpeed="max" from="-4611712" to="4611707#1"/>
    <trip id="truck158" type="truck_truck" depart="2594.29" departLane="best" from="-1101961674#3" to="681299268#1"/>
    <trip id="truck159" type="truck_truck" depart="2610.71" departLane="best" from="-1136657258#0" to="25776568#2"/>
    <trip id="truck160" type="truck_truck" depart="2627.12" departLane="best" from="24242892#1" to="196850608#1"/>
    <trip id="truck161" type="truck_truck" depart="2643.54" departLane="best" from="1125871619#3" to="35557161#4"/>
    <trip id="truck162" type="truck_truck" depart="2659.96" departLane="best" from="24242892#2" to="-4611711#1"/>
    <trip id="truck163" type="truck_truck" depart="2676.38" departLane="best" from="1155227488" to="1119837993"/>
    <trip id="truck165" type="truck_truck" depart="2709.22" departLane="best" departSpeed="max" from="-23755950#2" to="132600840#0"/>
    <trip id="truck166" type="truck_truck" depart="2725.64" departLane="best" from="-108031933#1" to="25776568#2"/>
    <trip id="truck167" type="truck_truck" depart="2742.06" departLane="best" from="-23755961" to="-35578576#0"/>
    <trip id="truck168" type="truck_truck" depart="2758.48" departLane="best" from="4611710#0" to="132600840#0"/>
    <trip id="truck169" type="truck_truck" depart="2774.90" departLane="best" departSpeed="max" from="-23755950#2" to="-111833186#1"/>
    <trip id="truck170" type="truck_truck" depart="2791.32" departLane="best" from="690322561" to="1127602336"/>
    <trip id="truck171" type="truck_truck" depart="2807.74" departLane="best" from="-1132163645#1" to="176043797"/>
    <trip id="truck172" type="truck_truck" depart="2824.16" departLane="best" from="1253429075" to="-4611710#2"/>
    <trip id="truck173" type="truck_truck" depart="2840.58" departLane="best" departSpeed="max" from="935142777#0" to="132600840#0"/>
    <trip id="truck174" type="truck_truck" depart="2857.00" departLane="best" from="35557143#2" to="15971189"/>
    <trip id="truck175" type="truck_truck" depart="2873.42" departLane="best" from="424323348" to="-35578576#0"/>
    <trip id="truck176" type="truck_truck" depart="2889.84" departLane="best" from="930343902#1" to="-4611711#0"/>
    <trip id="truck177" type="truck_truck" depart="2906.26" departLane="best" from="171423001#2" to="168937986"/>
    <trip id="truck179" type="truck_truck" depart="2939.10" departLane="best" from="320420913#0" to="-4611706#1"/>
    <trip id="truck181" type="truck_truck" depart="2971.93" departLane="best" from="24242892#0" to="-4773029#3"/>
    <trip id="truck182" type="truck_truck" depart="2988.35" departLane="best" from="42102542#1" to="176043797"/>
    <trip id="truck183" type="truck_truck" depart="3004.77" departLane="best" from="-1101961737" to="1228446781#1"/>
    <trip id="truck184" type="truck_truck" depart="3021.19" departLane="best" departSpeed="max" from="-4597324#3" to="-158023913#1"/>
    <trip id="truck185" type="truck_truck" depart="3037.61" departLane="best" from="1125871619#4" to="114667396#2"/>
    <trip id="truck186" type="truck_truck" depart="3054.03" departLane="best" departSpeed="max" from="-1110752632#3" to="1119838636#1"/>
    <trip id="truck187" type="truck_truck" depart="3070.45" departLane="best" from="-4611708#2" to="-437325055#2"/>
    <trip id="truck188" type="truck_truck" depart="3086.87" departLane="best" departSpeed="max" from="78298215#0" to="930343902#1"/>
    <trip id="truck189" type="truck_truck" depart="3103.29" departLane="best" departSpeed="max" from="-1110752632#3" to="320420916#0"/>
    <trip id="truck190" type="truck_truck" depart="3119.71" departLane="best" from="66071366#2" to="-25945966"/>
    <trip id="truck191" type="truck_truck" depart="3136.13" departLane="best" from="23017853" to="4610480#1"/>
    <trip id="truck192" type="truck_truck" depart="3152.55" departLane="best" from="-4611711#0" to="24242892#0"/>
    <trip id="truck193" type="truck_truck" depart="3168.97" departLane="best" departSpeed="max" from="-4597324#3" to="66071379#1"/>
    <trip id="truck194" type="truck_truck" depart="3185.39" departLane="best" from="111833186#0" to="-4773029#3"/>
    <trip id="truck196" type="truck_truck" depart="3218.23" departLane="best" from="1217865061#0" to="47935842"/>
    <trip id="truck197" type="truck_truck" depart="3234.65" departLane="best" from="1171295120#1" to="85255869#1"/>
    <trip id="truck198" type="truck_truck" depart="3251.07" departLane="best" from="168935756#0" to="-43231842#0"/>
    <trip id="truck199" type="truck_truck" depart="3267.49" departLane="best" departSpeed="max" from="-15971189" to="1228446781#1"/>
    <trip id="truck200" type="truck_truck" depart="3283.91" departLane="best" departSpeed="max" from="1238797610" to="-1151333059#2"/>
    <trip id="truck201" type="truck_truck" depart="3300.33" departLane="best" departSpeed="max" from="935142777#0" to="465376239"/>
    <trip id="truck202" type="truck_truck" depart="3316.74" departLane="best" from="236092221#1" to="-131577612#3"/>
    <trip id="truck203" type="truck_truck" depart="3333.16" departLane="best" from="4588219#1" to="114667396#3"/>
    <trip id="truck204" type="truck_truck" depart="3349.58" departLane="best" from="28251222#1" to="-1151333059#1"/>
    <trip id="truck205" type="truck_truck" depart="3366.00" departLane="best" from="-930343901#1" to="-43231842#1"/>
    <trip id="truck206" type="truck_truck" depart="3382.42" departLane="best" from="66071373#1" to="-1151333059#0"/>
    <trip id="truck207" type="truck_truck" depart="3398.84" departLane="best" from="4611711#0" to="4610480#1"/>
    <trip id="truck208" type="truck_truck" depart="3415.26" departLane="best" departSpeed="max" from="109902441" to="555858098#2"/>
    <trip id="truck209" type="truck_truck" depart="3431.68" departLane="best" from="-4597324#1" to="-4611710#0"/>
    <trip id="truck210" type="truck_truck" depart="3448.10" departLane="best" departSpeed="max" from="1238797610" to="1228446781#1"/>
    <trip id="truck211" type="truck_truck" depart="3464.52" departLane="best" from="111833186#0" to="-66071366#3"/>
    <trip id="truck212" type="truck_truck" depart="3480.94" departLane="best" departSpeed="max" from="-23755950#2" to="24242892#2"/>
    <trip id="truck213" type="truck_truck" depart="3497.36" departLane="best" from="437325056#0" to="-1110748916#1"/>
    <trip id="truck214" type="truck_truck" depart="3513.78" departLane="best" departSpeed="max" from="-1110752632#3" to="1170522567#0"/>
    <trip id="truck216" type="truck_truck" depart="3546.62" departLane="best" from="4611710#0" to="1119936840#1"/>
    <trip id="truck217" type="truck_truck" depart="3563.04" departLane="best" from="1119938072#0" to="840229275#1"/>
    <trip id="truck218" type="truck_truck" depart="3579.46" departLane="best" departSpeed="max" from="-4611712" to="24242892#0"/>
    <trip id="truck219" type="truck_truck" depart="3595.88" departLane="best" from="196850608#2" to="4597324#3"/>
    <trip id="truck220" type="truck_truck" depart="3612.30" departLane="best" from="4611708#2" to="-1115641285#1"/>
    <trip id="truck221" type="truck_truck" depart="3628.72" departLane="best" from="-326116286#1" to="1119838636#1"/>
    <trip id="truck222" type="truck_truck" depart="3645.14" departLane="best" from="4611708#2" to="1119937599#1"/>
    <trip id="truck223" type="truck_truck" depart="3661.55" departLane="best" from="24242892#3" to="4611712"/>
    <trip id="truck224" type="truck_truck" depart="3677.97" departLane="best" departSpeed="max" from="-1110752632#3" to="389101365#1"/>
    <trip id="truck225" type="truck_truck" depart="3694.39" departLane="best" departSpeed="max" from="-4597324#3" to="1105574290"/>
    <trip id="truck226" type="truck_truck" depart="3710.81" departLane="best" from="1263480787#1" to="35557161#4"/>
    <trip id="truck227" type="truck_truck" depart="3727.23" departLane="best" from="-35557161#4" to="465376239"/>
    <trip id="truck228" type="truck_truck" depart="3743.65" departLane="best" departSpeed="max" from="-15971189" to="1119936840#1"/>
    <trip id="truck229" type="truck_truck" depart="3760.07" departLane="best" from="-4773029#2" to="154041909"/>
    <trip id="truck230" type="truck_truck" depart="3776.49" departLane="best" from="43231842#3" to="4597324#2"/>
    <trip id="truck231" type="truck_truck" depart="3792.91" departLane="best" from="1125869405#3" to="-43231842#0"/>
    <trip id="truck232" type="truck_truck" depart="3809.33" departLane="best" departSpeed="max" from="935142777#0" to="-4611708#1"/>
    <trip id="truck233" type="truck_truck" depart="3825.75" departLane="best" from="-4588219#2" to="1261128304"/>
    <trip id="truck234" type="truck_truck" depart="3842.17" departLane="best" from="111833185#1" to="15971189"/>
    <trip id="truck235" type="truck_truck" depart="3858.59" departLane="best" from="1126237668#1" to="4611712"/>
    <trip id="truck236" type="truck_truck" depart="3875.01" departLane="best" departSpeed="max" from="-4597324#3" to="42102542#1"/>
    <trip id="truck237" type="truck_truck" depart="3891.43" departLane="best" from="210668637#1" to="4588222#1"/>
    <trip id="truck238" type="truck_truck" depart="3907.85" departLane="best" departSpeed="max" from="171484594#0" to="4611712"/>
    <trip id="truck239" type="truck_truck" depart="3924.27" departLane="best" departSpeed="max" from="-4597324#3" to="292429063"/>
    <trip id="truck240" type="truck_truck" depart="3940.69" departLane="best" from="-23017852#2" to="-15977422#1"/>