<?xml version="1.0" encoding="UTF-8"?>

<!-- generated on 2024-05-06 21:25:22.736344 by osmWebWizard.py v1_19_0+0000-baa66a0f364
<configuration>
    <net-file value="F:\SUMO\OptimalEmission-SUMO-ReinforcementLearning\2024-05-06-21-25-06\osm.net.xml.gz"/>
    <output-trip-file value="F:\SUMO\OptimalEmission-SUMO-ReinforcementLearning\2024-05-06-21-25-06\osm.passenger.trips.xml"/>
    <route-file value="F:\SUMO\OptimalEmission-SUMO-ReinforcementLearning\2024-05-06-21-25-06\osm.passenger.rou.xml"/>
    <prefix value="veh"/>
    <trip-attributes value="departLane=&quot;best&quot;"/>
    <fringe-start-attributes value="departSpeed=&quot;max&quot;"/>
    <vehicle-class value="passenger"/>
    <lanes value="True"/>
    <fringe-factor value="5"/>
    <allow-fringe.min-length value="1000.0"/>
    <via-edge-types value="highway.motorway,highway.motorway_link,highway.trunk_link,highway.primary_link,highway.secondary_link,highway.tertiary_link"/>
    <min-distance value="300.0"/>
    <min-distance.fringe value="10.0"/>
    <remove-loops value="True"/>
    <validate value="True"/>
    <end value="60000.0"/>
    <insertion-density value="12.0"/>
</configuration>
-->

<!-- generated on 2024-05-06 21:25:22 by Eclipse SUMO duarouter Version 1.19.0
<configuration xmlns:xsi="http://www.w3.org/2001/XMLSchema-instance" xsi:noNamespaceSchemaLocation="http://sumo.dlr.de/xsd/duarouterConfiguration.xsd">

    <input>
        <net-file value="F:\SUMO\OptimalEmission-SUMO-ReinforcementLearning\2024-05-06-21-25-06\osm.net.xml.gz"/>
        <route-files value="F:\SUMO\OptimalEmission-SUMO-ReinforcementLearning\2024-05-06-21-25-06\osm.passenger.trips.xml"/>
    </input>

    <output>
        <output-file value="F:\SUMO\OptimalEmission-SUMO-ReinforcementLearning\2024-05-06-21-25-06\osm.passenger.trips.xml.tmp"/>
        <alternatives-output value="NUL"/>
        <write-trips value="true"/>
    </output>

    <processing>
        <remove-loops value="true"/>
    </processing>

    <time>
        <begin value="0.0"/>
        <end value="60000.0"/>
    </time>

    <report>
        <no-warnings value="true"/>
        <ignore-errors value="true"/>
        <no-step-log value="true"/>
    </report>

</configuration>
-->

<routes xmlns:xsi="http://www.w3.org/2001/XMLSchema-instance" xsi:noNamespaceSchemaLocation="http://sumo.dlr.de/xsd/routes_file.xsd">
    <vType id="veh_passenger" vClass="passenger"/>
    <trip id="veh0" type="veh_passenger" depart="0.00" departLane="best" from="236092221#1" to="1105574291#1"/>
    <trip id="veh2" type="veh_passenger" depart="21.89" departLane="best" from="530085625#0" to="-1171295120#0"/>
    <trip id="veh3" type="veh_passenger" depart="32.84" departLane="best" from="1119937599#3" to="1110749960#1"/>
    <trip id="veh4" type="veh_passenger" depart="43.79" departLane="best" from="43231842#3" to="1164203952#0"/>
    <trip id="veh5" type="veh_passenger" depart="54.73" departLane="best" from="437325055#1" to="15971189"/>
    <trip id="veh6" type="veh_passenger" depart="65.68" departLane="best" from="448810728" to="-109902441"/>
    <trip id="veh7" type="veh_passenger" depart="76.62" departLane="best" from="4412868#1" to="24242892#4"/>
    <trip id="veh8" type="veh_passenger" depart="87.57" departLane="best" from="-85255869#2" to="1101961674#4"/>
    <trip id="veh9" type="veh_passenger" depart="98.52" departLane="best" from="-1155757392" to="1126241276#1"/>
    <trip id="veh10" type="veh_passenger" depart="109.46" departLane="best" from="4611699#1" to="171423001#2"/>
    <trip id="veh11" type="veh_passenger" depart="120.41" departLane="best" from="4412868#2" to="-28251222#0"/>
    <trip id="veh12" type="veh_passenger" depart="131.36" departLane="best" from="153698394#2" to="85255869#1"/>
    <trip id="veh13" type="veh_passenger" depart="142.30" departLane="best" from="-1105574291#1" to="-131577612#3"/>
    <trip id="veh14" type="veh_passenger" depart="153.25" departLane="best" from="4610524#1" to="176043797"/>
    <trip id="veh15" type="veh_passenger" depart="164.20" departLane="best" from="4611711#1" to="555858098#2"/>
    <trip id="veh16" type="veh_passenger" depart="175.14" departLane="best" from="320420913#0" to="-1119938072#0"/>
    <trip id="veh17" type="veh_passenger" depart="186.09" departLane="best" from="-4401967#2" to="66071366#2"/>
    <trip id="veh18" type="veh_passenger" depart="197.03" departLane="best" from="-114667396#3" to="-4401967#2"/>
    <trip id="veh19" type="veh_passenger" depart="207.98" departLane="best" from="43233756#1" to="-4611711#0"/>
    <trip id="veh20" type="veh_passenger" depart="218.93" departLane="best" from="236092221#0" to="1111982484#1"/>
    <trip id="veh21" type="veh_passenger" depart="229.87" departLane="best" from="-1101961674#2" to="-35578576#0"/>
    <trip id="veh22" type="veh_passenger" depart="240.82" departLane="best" departSpeed="max" from="-4610480#1" to="530085625#0"/>
    <trip id="veh23" type="veh_passenger" depart="251.77" departLane="best" from="424323348" to="176043797"/>
    <trip id="veh24" type="veh_passenger" depart="262.71" departLane="best" from="24913267#3" to="25776568#2"/>
    <trip id="veh25" type="veh_passenger" depart="273.66" departLane="best" from="-23755961" to="111833186#1"/>
    <trip id="veh26" type="veh_passenger" depart="284.61" departLane="best" departSpeed="max" from="935142777#0" to="196850609#1"/>
    <trip id="veh27" type="veh_passenger" depart="295.55" departLane="best" departSpeed="max" from="4611699#0" to="326116285#7"/>
    <trip id="veh28" type="veh_passenger" depart="306.50" departLane="best" from="-4402014#3" to="-111833185#0"/>
    <trip id="veh29" type="veh_passenger" depart="317.44" departLane="best" from="-35557161#4" to="66071366#2"/>
    <trip id="veh30" type="veh_passenger" depart="328.39" departLane="best" from="4773029#1" to="-930343901#1"/>
    <trip id="veh31" type="veh_passenger" depart="339.34" departLane="best" from="68647306#4" to="1132163645#4"/>
    <trip id="veh32" type="veh_passenger" depart="350.28" departLane="best" departSpeed="max" from="-4610480#1" to="-4588211#1"/>
    <trip id="veh33" type="veh_passenger" depart="361.23" departLane="best" departSpeed="max" from="15977422#0" to="4610524#0"/>
    <trip id="veh34" type="veh_passenger" depart="372.18" departLane="best" departSpeed="max" from="171484594#0" to="4611711#1"/>
    <trip id="veh35" type="veh_passenger" depart="383.12" departLane="best" from="111833186#0" to="-43231842#0"/>
    <trip id="veh36" type="veh_passenger" depart="394.07" departLane="best" departSpeed="max" from="935142777#0" to="1164203952#0"/>
    <trip id="veh37" type="veh_passenger" depart="405.02" departLane="best" from="-1151333060" to="-1119938072#1"/>
    <trip id="veh38" type="veh_passenger" depart="415.96" departLane="best" departSpeed="max" from="-1228446781#4" to="194069450#0"/>
    <trip id="veh39" type="veh_passenger" depart="426.91" departLane="best" departSpeed="max" from="-1132164217#3" to="1119837993"/>
    <trip id="veh40" type="veh_passenger" depart="437.85" departLane="best" departSpeed="max" from="935142777#0" to="1228446781#1"/>
    <trip id="veh41" type="veh_passenger" depart="448.80" departLane="best" from="894814132" to="4597324#3"/>
    <trip id="veh42" type="veh_passenger" depart="459.75" departLane="best" departSpeed="max" from="25945965" to="1249342905"/>
    <trip id="veh43" type="veh_passenger" depart="470.69" departLane="best" departSpeed="max" from="-4610480#1" to="196850609#1"/>
    <trip id="veh44" type="veh_passenger" depart="481.64" departLane="best" departSpeed="max" from="-1228446781#4" to="1125871619#2"/>
    <trip id="veh45" type="veh_passenger" depart="492.59" departLane="best" from="1170522572#0" to="-320462164#1"/>
    <trip id="veh46" type="veh_passenger" depart="503.53" departLane="best" from="68647306#3" to="4610480#1"/>
    <trip id="veh47" type="veh_passenger" depart="514.48" departLane="best" departSpeed="max" from="-4611712" to="196850609#0"/>
    <trip id="veh48" type="veh_passenger" depart="525.42" departLane="best" from="196850607#1" to="-24913267#2"/>
    <trip id="veh49" type="veh_passenger" depart="536.37" departLane="best" departSpeed="max" from="35578576#0" to="1249342905"/>
    <trip id="veh50" type="veh_passenger" depart="547.32" departLane="best" departSpeed="max" from="43231842#0" to="1228446781#1"/>
    <trip id="veh51" type="veh_passenger" depart="558.26" departLane="best" from="1151333059#3" to="1126237668#1"/>
    <trip id="veh53" type="veh_passenger" depart="580.16" departLane="best" from="4773029#2" to="4402037#0"/>
    <trip id="veh54" type="veh_passenger" depart="591.10" departLane="best" from="-66071366#1" to="-1132162834#0"/>
    <trip id="veh55" type="veh_passenger" depart="602.05" departLane="best" from="1151333059#0" to="1155757393#1"/>
    <trip id="veh56" type="veh_passenger" depart="613.00" departLane="best" departSpeed="max" from="-1132164217#3" to="320420916#0"/>
    <trip id="veh57" type="veh_passenger" depart="623.94" departLane="best" departSpeed="max" from="35578576#0" to="-171484594#1"/>
    <trip id="veh58" type="veh_passenger" depart="634.89" departLane="best" from="1149417521#1" to="-23755739#0"/>
    <trip id="veh59" type="veh_passenger" depart="645.83" departLane="best" from="1119938072#0" to="-35578576#0"/>
    <trip id="veh60" type="veh_passenger" depart="656.78" departLane="best" from="153698394#3" to="-28251222#0"/>
    <trip id="veh61" type="veh_passenger" depart="667.73" departLane="best" from="-335462916" to="-882389497#1"/>
    <trip id="veh62" type="veh_passenger" depart="678.67" departLane="best" departSpeed="max" from="935142777#0" to="23017852#0"/>
    <trip id="veh63" type="veh_passenger" depart="689.62" departLane="best" from="1125871262#1" to="1170522572#0"/>
    <trip id="veh64" type="veh_passenger" depart="700.57" departLane="best" from="132600840#0" to="-43231842#2"/>
    <trip id="veh65" type="veh_passenger" depart="711.51" departLane="best" from="-874528353#3" to="15971189"/>
    <trip id="veh66" type="veh_passenger" depart="722.46" departLane="best" from="-4402014#3" to="-43231842#0"/>
    <trip id="veh67" type="veh_passenger" depart="733.41" departLane="best" from="-4402014#3" to="4611712"/>
    <trip id="veh68" type="veh_passenger" depart="744.35" departLane="best" from="4611710#2" to="-11483007#2"/>
    <trip id="veh69" type="veh_passenger" depart="755.30" departLane="best" from="-4412868#2" to="23755950#0"/>
    <trip id="veh70" type="veh_passenger" depart="766.24" departLane="best" from="-389101365#3" to="194069450#0"/>
    <trip id="veh71" type="veh_passenger" depart="777.19" departLane="best" departSpeed="max" from="78298215#0" to="154041909"/>
    <trip id="veh72" type="veh_passenger" depart="788.14" departLane="best" from="-11483007#2" to="340498976#3"/>
    <trip id="veh73" type="veh_passenger" depart="799.08" departLane="best" from="4412868#2" to="326116285#7"/>
    <trip id="veh74" type="veh_passenger" depart="810.03" departLane="best" from="-1159149106#0" to="1125871619#1"/>
    <trip id="veh75" type="veh_passenger" depart="820.98" departLane="best" from="1119938072#0" to="114667396#2"/>
    <trip id="veh76" type="veh_passenger" depart="831.92" departLane="best" from="-335462874#1" to="23755950#0"/>
    <trip id="veh77" type="veh_passenger" depart="842.87" departLane="best" from="930343902#1" to="-131577612#3"/>
    <trip id="veh78" type="veh_passenger" depart="853.82" departLane="best" from="1119935327#1" to="1105574290"/>
    <trip id="veh79" type="veh_passenger" depart="864.76" departLane="best" from="4611711#1" to="-4588219#1"/>
    <trip id="veh80" type="veh_passenger" depart="875.71" departLane="best" from="320462164#2" to="1126237668#1"/>
    <trip id="veh81" type="veh_passenger" depart="886.65" departLane="best" from="1119937599#3" to="-4611711#1"/>
    <trip id="veh82" type="veh_passenger" depart="897.60" departLane="best" from="-4597324#0" to="4773029#4"/>
    <trip id="veh83" type="veh_passenger" depart="908.55" departLane="best" from="1125871619#2" to="4597324#3"/>
    <trip id="veh84" type="veh_passenger" depart="919.49" departLane="best" from="555858098#2" to="-1123106898#0"/>
    <trip id="veh85" type="veh_passenger" depart="930.44" departLane="best" departSpeed="max" from="935142777#0" to="-4412868#1"/>
    <trip id="veh87" type="veh_passenger" depart="952.33" departLane="best" from="1151333059#3" to="389101365#1"/>
    <trip id="veh88" type="veh_passenger" depart="963.28" departLane="best" from="111833186#1" to="840229275#1"/>
    <trip id="veh89" type="veh_passenger" depart="974.23" departLane="best" from="1126234503#0" to="-1125869405#0"/>
    <trip id="veh90" type="veh_passenger" depart="985.17" departLane="best" from="-85255869#2" to="930343901#3"/>
    <trip id="veh91" type="veh_passenger" depart="996.12" departLane="best" from="154041920" to="251884680#1"/>
    <trip id="veh92" type="veh_passenger" depart="1007.06" departLane="best" departSpeed="max" from="-23755950#2" to="-681299268#1"/>
    <trip id="veh93" type="veh_passenger" depart="1018.01" departLane="best" from="882389497#1" to="154041920"/>
    <trip id="veh94" type="veh_passenger" depart="1028.96" departLane="best" from="1125869405#1" to="15971189"/>
    <trip id="veh95" type="veh_passenger" depart="1039.90" departLane="best" from="1171295120#1" to="4597324#0"/>
    <trip id="veh96" type="veh_passenger" depart="1050.85" departLane="best" departSpeed="max" from="-23755950#2" to="-176273730#1"/>
    <trip id="veh97" type="veh_passenger" depart="1061.80" departLane="best" from="-114667396#3" to="326116285#4"/>
    <trip id="veh98" type="veh_passenger" depart="1072.74" departLane="best" departSpeed="max" from="171484594#0" to="23755961"/>
    <trip id="veh99" type="veh_passenger" depart="1083.69" departLane="best" from="-4402037#2" to="-171484594#1"/>
    <trip id="veh100" type="veh_passenger" depart="1094.64" departLane="best" departSpeed="max" from="171484594#0" to="176043797"/>
    <trip id="veh101" type="veh_passenger" depart="1105.58" departLane="best" from="1119937599#2" to="158023913#3"/>
    <trip id="veh102" type="veh_passenger" depart="1116.53" departLane="best" from="1261128304" to="530085625#0"/>
    <trip id="veh103" type="veh_passenger" depart="1127.47" departLane="best" from="-35557143#2" to="251884680#1"/>
    <trip id="veh104" type="veh_passenger" depart="1138.42" departLane="best" departSpeed="max" from="-66071379#1" to="320420912#2"/>
    <trip id="veh105" type="veh_passenger" depart="1149.37" departLane="best" departSpeed="max" from="935142777#0" to="930343901#4"/>
    <trip id="veh106" type="veh_passenger" depart="1160.31" departLane="best" from="-1136657259#0" to="-35578576#2"/>
    <trip id="veh107" type="veh_passenger" depart="1171.26" departLane="best" departSpeed="max" from="-4610480#1" to="154041912#1"/>
    <trip id="veh108" type="veh_passenger" depart="1182.21" departLane="best" from="-1101961674#2" to="-25945966"/>
    <trip id="veh109" type="veh_passenger" depart="1193.15" departLane="best" from="196850608#0" to="894814132"/>
    <trip id="veh110" type="veh_passenger" depart="1204.10" departLane="best" from="24240246#1" to="-109902441"/>
    <trip id="veh111" type="veh_passenger" depart="1215.05" departLane="best" from="24242892#2" to="154041918#2"/>
    <trip id="veh112" type="veh_passenger" depart="1225.99" departLane="best" from="168935756#0" to="-171484594#1"/>
    <trip id="veh113" type="veh_passenger" depart="1236.94" departLane="best" departSpeed="max" from="-1228446781#4" to="-131577612#3"/>
    <trip id="veh114" type="veh_passenger" depart="1247.88" departLane="best" departSpeed="max" from="4610524#1" to="171423001#2"/>
    <trip id="veh115" type="veh_passenger" depart="1258.83" departLane="best" from="320462164#2" to="-4611710#2"/>
    <trip id="veh116" type="veh_passenger" depart="1269.78" departLane="best" from="236092221#0" to="4610524#0"/>
    <trip id="veh117" type="veh_passenger" depart="1280.72" departLane="best" from="1155227488" to="4611712"/>
    <trip id="veh118" type="veh_passenger" depart="1291.67" departLane="best" from="4611699#1" to="-1190781962#0"/>
    <trip id="veh119" type="veh_passenger" depart="1302.62" departLane="best" from="1119938072#0" to="-4611710#2"/>
    <trip id="veh120" type="veh_passenger" depart="1313.56" departLane="best" from="236092221#0" to="4610524#0"/>
    <trip id="veh121" type="veh_passenger" depart="1324.51" departLane="best" from="169195795#1" to="-131577612#3"/>
    <trip id="veh122" type="veh_passenger" depart="1335.45" departLane="best" from="1123106516" to="-109902441"/>
    <trip id="veh123" type="veh_passenger" depart="1346.40" departLane="best" from="-114667396#0" to="4611707#1"/>
    <trip id="veh124" type="veh_passenger" depart="1357.35" departLane="best" from="-66071366#3" to="1253429075"/>
    <trip id="veh125" type="veh_passenger" depart="1368.29" departLane="best" departSpeed="max" from="4611699#0" to="158023913#3"/>
    <trip id="veh126" type="veh_passenger" depart="1379.24" departLane="best" from="23017853" to="-171484594#1"/>
    <trip id="veh127" type="veh_passenger" depart="1390.19" departLane="best" from="-66071366#2" to="4611712"/>
    <trip id="veh128" type="veh_passenger" depart="1401.13" departLane="best" from="4401967#1" to="4597324#3"/>
    <trip id="veh129" type="veh_passenger" depart="1412.08" departLane="best" from="555858098#2" to="-35578576#0"/>
    <trip id="veh130" type="veh_passenger" depart="1423.03" departLane="best" from="-4597324#0" to="132600840#1"/>
    <trip id="veh131" type="veh_passenger" depart="1433.97" departLane="best" from="1119935543#0" to="176043797"/>
    <trip id="veh133" type="veh_passenger" depart="1455.86" departLane="best" from="4611713" to="-85255870#1"/>
    <trip id="veh134" type="veh_passenger" depart="1466.81" departLane="best" from="4588211#0" to="4611707#1"/>
    <trip id="veh135" type="veh_passenger" depart="1477.76" departLane="best" from="-1105574291#0" to="292429062#0"/>
    <trip id="veh136" type="veh_passenger" depart="1488.70" departLane="best" from="-85255869#2" to="527714921#1"/>
    <trip id="veh137" type="veh_passenger" depart="1499.65" departLane="best" from="-4402037#1" to="4610480#1"/>
    <trip id="veh138" type="veh_passenger" depart="1510.60" departLane="best" from="4588211#0" to="-4611706#1"/>
    <trip id="veh139" type="veh_passenger" depart="1521.54" departLane="best" from="43231842#2" to="-15977422#1"/>
    <trip id="veh140" type="veh_passenger" depart="1532.49" departLane="best" departSpeed="max" from="465376240#0" to="4597324#3"/>
    <trip id="veh141" type="veh_passenger" depart="1543.44" departLane="best" from="437325055#1" to="-43231842#1"/>
    <trip id="veh142" type="veh_passenger" depart="1554.38" departLane="best" from="-1233798019" to="85255869#1"/>
    <trip id="veh143" type="veh_passenger" depart="1565.33" departLane="best" from="-1105574291#0" to="-335462916"/>
    <trip id="veh144" type="veh_passenger" depart="1576.27" departLane="best" from="-840229277#0" to="4610480#1"/>
    <trip id="veh145" type="veh_passenger" depart="1587.22" departLane="best" from="882389494#1" to="-4611711#1"/>
    <trip id="veh146" type="veh_passenger" depart="1598.17" departLane="best" from="930343902#0" to="1249342905"/>
    <trip id="veh147" type="veh_passenger" depart="1609.11" departLane="best" departSpeed="max" from="78298215#0" to="-171484594#1"/>
    <trip id="veh148" type="veh_passenger" depart="1620.06" departLane="best" from="-874528353#1" to="4610524#0"/>
    <trip id="veh149" type="veh_passenger" depart="1631.01" departLane="best" departSpeed="max" from="-1228446781#4" to="1125871619#2"/>
    <trip id="veh150" type="veh_passenger" depart="1641.95" departLane="best" from="-335462874#1" to="-930343901#0"/>
    <trip id="veh151" type="veh_passenger" depart="1652.90" departLane="best" from="195411604" to="1164203952#0"/>
    <trip id="veh152" type="veh_passenger" depart="1663.85" departLane="best" from="-1110750064" to="555858098#2"/>
    <trip id="veh153" type="veh_passenger" depart="1674.79" departLane="best" departSpeed="max" from="-4597324#3" to="251884680#1"/>
    <trip id="veh154" type="veh_passenger" depart="1685.74" departLane="best" from="1079386660" to="47935842"/>
    <trip id="veh155" type="veh_passenger" depart="1696.68" departLane="best" from="153698394#3" to="251884680#1"/>
    <trip id="veh156" type="veh_passenger" depart="1707.63" departLane="best" from="340498982#0" to="23755950#0"/>
    <trip id="veh157" type="veh_passenger" depart="1718.58" departLane="best" departSpeed="max" from="109902441" to="-11483007#2"/>
    <trip id="veh158" type="veh_passenger" depart="1729.52" departLane="best" from="24242892#2" to="1079495669#1"/>
    <trip id="veh159" type="veh_passenger" depart="1740.47" departLane="best" from="-66071379#0" to="4588220#0"/>
    <trip id="veh160" type="veh_passenger" depart="1751.42" departLane="best" from="320462164#2" to="1136657260#1"/>
    <trip id="veh161" type="veh_passenger" depart="1762.36" departLane="best" from="-66071366#2" to="1119937599#1"/>
    <trip id="veh162" type="veh_passenger" depart="1773.31" departLane="best" from="111833186#1" to="-681299267#0"/>
    <trip id="veh163" type="veh_passenger" depart="1784.26" departLane="best" departSpeed="max" from="-15971189" to="1123106516"/>
    <trip id="veh164" type="veh_passenger" depart="1795.20" departLane="best" departSpeed="max" from="78298215#0" to="24240245#1"/>
    <trip id="veh165" type="veh_passenger" depart="1806.15" departLane="best" from="-66071366#3" to="176043797"/>
    <trip id="veh166" type="veh_passenger" depart="1817.09" departLane="best" from="1151333059#3" to="-4773029#4"/>
    <trip id="veh167" type="veh_passenger" depart="1828.04" departLane="best" from="1123106898#1" to="154041920"/>
    <trip id="veh168" type="veh_passenger" depart="1838.99" departLane="best" from="-24242882#1" to="114667396#1"/>
    <trip id="veh169" type="veh_passenger" depart="1849.93" departLane="best" from="1125871619#2" to="389101365#1"/>
    <trip id="veh170" type="veh_passenger" depart="1860.88" departLane="best" from="11483007#0" to="4611712"/>
    <trip id="veh171" type="veh_passenger" depart="1871.83" departLane="best" from="4401967#1" to="292429062#1"/>
    <trip id="veh172" type="veh_passenger" depart="1882.77" departLane="best" from="-1151333056" to="1170522567#0"/>
    <trip id="veh173" type="veh_passenger" depart="1893.72" departLane="best" from="23017853" to="1101961674#3"/>
    <trip id="veh174" type="veh_passenger" depart="1904.67" departLane="best" from="-4588220#1" to="320420912#2"/>
    <trip id="veh175" type="veh_passenger" depart="1915.61" departLane="best" from="243854725#1" to="-43231842#2"/>
    <trip id="veh176" type="veh_passenger" depart="1926.56" departLane="best" from="-335462874#1" to="1105574291#1"/>
    <trip id="veh177" type="veh_passenger" depart="1937.50" departLane="best" from="-4588219#2" to="1151333056"/>
    <trip id="veh178" type="veh_passenger" depart="1948.45" departLane="best" from="4611706#1" to="1151333056"/>
    <trip id="veh179" type="veh_passenger" depart="1959.40" departLane="best" from="1119937599#1" to="196850607#0"/>
    <trip id="veh180" type="veh_passenger" depart="1970.34" departLane="best" from="-326116285#4" to="24242892#4"/>
    <trip id="veh181" type="veh_passenger" depart="1981.29" departLane="best" from="1149417521#1" to="-4412868#2"/>
    <trip id="veh182" type="veh_passenger" depart="1992.24" departLane="best" from="1119935543#0" to="-320462163#0"/>
    <trip id="veh183" type="veh_passenger" depart="2003.18" departLane="best" from="-1190781965" to="-108031933#1"/>
    <trip id="veh184" type="veh_passenger" depart="2014.13" departLane="best" from="-292429062#0" to="68647306#6"/>
    <trip id="veh185" type="veh_passenger" depart="2025.08" departLane="best" from="1252995263" to="-1123106898#0"/>
    <trip id="veh186" type="veh_passenger" depart="2036.02" departLane="best" from="-4597324#0" to="4588220#0"/>
    <trip id="veh187" type="veh_passenger" depart="2046.97" departLane="best" from="24242892#3" to="894814132"/>
    <trip id="veh188" type="veh_passenger" depart="2057.91" departLane="best" departSpeed="max" from="171484594#0" to="66071379#1"/>
    <trip id="veh189" type="veh_passenger" depart="2068.86" departLane="best" from="527714921#1" to="176043797"/>
    <trip id="veh190" type="veh_passenger" depart="2079.81" departLane="best" from="-320462164#3" to="1164203952#0"/>
    <trip id="veh191" type="veh_passenger" depart="2090.75" departLane="best" from="555858098#2" to="292429063"/>
    <trip id="veh192" type="veh_passenger" depart="2101.70" departLane="best" departSpeed="max" from="35578576#0" to="-1171295120#1"/>
    <trip id="veh193" type="veh_passenger" depart="2112.65" departLane="best" from="35557143#3" to="-4611710#1"/>
    <trip id="veh194" type="veh_passenger" depart="2123.59" departLane="best" from="-114667396#2" to="-4773029#3"/>
    <trip id="veh195" type="veh_passenger" depart="2134.54" departLane="best" departSpeed="max" from="4610524#1" to="-930343901#4"/>
    <trip id="veh196" type="veh_passenger" depart="2145.49" departLane="best" from="153698394#4" to="-23017852#0"/>
    <trip id="veh197" type="veh_passenger" depart="2156.43" departLane="best" from="320420913#0" to="114667396#0"/>
    <trip id="veh198" type="veh_passenger" depart="2167.38" departLane="best" from="1119935543#0" to="1249342905"/>
    <trip id="veh199" type="veh_passenger" depart="2178.32" departLane="best" from="1119937599#1" to="-35578576#0"/>
    <trip id="veh200" type="veh_passenger" depart="2189.27" departLane="best" from="1119937599#3" to="4611712"/>
    <trip id="veh201" type="veh_passenger" depart="2200.22" departLane="best" departSpeed="max" from="171484594#0" to="24242892#3"/>
    <trip id="veh202" type="veh_passenger" depart="2211.16" departLane="best" from="4611710#0" to="-320462164#3"/>
    <trip id="veh203" type="veh_passenger" depart="2222.11" departLane="best" from="-1105574291#2" to="-108031933#1"/>
    <trip id="veh204" type="veh_passenger" depart="2233.06" departLane="best" from="1077923225#0" to="320420913#0"/>
    <trip id="veh205" type="veh_passenger" depart="2244.00" departLane="best" from="1119937599#2" to="292429063"/>
    <trip id="veh206" type="veh_passenger" depart="2254.95" departLane="best" from="154041909" to="171423001#1"/>
    <trip id="veh207" type="veh_passenger" depart="2265.89" departLane="best" from="437325055#1" to="-43231842#0"/>
    <trip id="veh208" type="veh_passenger" depart="2276.84" departLane="best" from="1125871262#1" to="1110749960#1"/>
    <trip id="veh209" type="veh_passenger" depart="2287.79" departLane="best" from="-874528353#0" to="24240245#1"/>
    <trip id="veh210" type="veh_passenger" depart="2298.73" departLane="best" from="1119935327#1" to="-28251222#0"/>
    <trip id="veh211" type="veh_passenger" depart="2309.68" departLane="best" from="-114667396#1" to="-171484594#1"/>
    <trip id="veh212" type="veh_passenger" depart="2320.63" departLane="best" from="210668637#0" to="1105574291#2"/>
    <trip id="veh213" type="veh_passenger" depart="2331.57" departLane="best" from="68711084#1" to="1136657260#1"/>
    <trip id="veh214" type="veh_passenger" depart="2342.52" departLane="best" from="-35557161#4" to="-1079386660"/>
    <trip id="veh215" type="veh_passenger" depart="2353.47" departLane="best" departSpeed="max" from="35578576#0" to="111833186#1"/>
    <trip id="veh216" type="veh_passenger" depart="2364.41" departLane="best" from="-35557143#2" to="4402037#0"/>
    <trip id="veh217" type="veh_passenger" depart="2375.36" departLane="best" from="-4597324#2" to="1155762025#0"/>
    <trip id="veh218" type="veh_passenger" depart="2386.30" departLane="best" departSpeed="max" from="-1105574290" to="1249342905"/>
    <trip id="veh219" type="veh_passenger" depart="2397.25" departLane="best" departSpeed="max" from="935142777#0" to="1105574291#2"/>
    <trip id="veh220" type="veh_passenger" depart="2408.20" departLane="best" from="530085625#0" to="320420913#0"/>
    <trip id="veh221" type="veh_passenger" depart="2419.14" departLane="best" departSpeed="max" from="78298215#0" to="35557161#1"/>
    <trip id="veh222" type="veh_passenger" depart="2430.09" departLane="best" departSpeed="max" from="-1105574290" to="-24913267#2"/>
    <trip id="veh223" type="veh_passenger" depart="2441.04" departLane="best" departSpeed="max" from="-15971189" to="23755950#0"/>
    <trip id="veh224" type="veh_passenger" depart="2451.98" departLane="best" departSpeed="max" from="15977422#0" to="-43231842#0"/>
    <trip id="veh225" type="veh_passenger" depart="2462.93" departLane="best" from="-292429062#3" to="-320462164#3"/>
    <trip id="veh226" type="veh_passenger" depart="2473.88" departLane="best" from="24913267#1" to="176043797"/>
    <trip id="veh227" type="veh_passenger" depart="2484.82" departLane="best" from="340498988#0" to="-168935756#1"/>
    <trip id="veh228" type="veh_passenger" depart="2495.77" departLane="best" departSpeed="max" from="-1228446781#4" to="1105574291#1"/>
    <trip id="veh229" type="veh_passenger" depart="2506.71" departLane="best" from="-66071366#5" to="24240245#1"/>
    <trip id="veh230" type="veh_passenger" depart="2517.66" departLane="best" from="85255870#0" to="1119935327#1"/>
    <trip id="veh231" type="veh_passenger" depart="2528.61" departLane="best" from="292429056#1" to="194069450#0"/>
    <trip id="veh232" type="veh_passenger" depart="2539.55" departLane="best" from="132600840#0" to="882389494#1"/>
    <trip id="veh233" type="veh_passenger" depart="2550.50" departLane="best" departSpeed="max" from="43231842#0" to="1105574291#0"/>
    <trip id="veh234" type="veh_passenger" depart="2561.45" departLane="best" from="1123106516" to="1115641285#1"/>
    <trip id="veh235" type="veh_passenger" depart="2572.39" departLane="best" from="1190781963#1" to="1105574290"/>