<?xml version="1.0" encoding="UTF-8"?>

<!-- generated on 2024-05-06 21:25:18.829784 by osmWebWizard.py v1_19_0+0000-baa66a0f364
<configuration>
    <net-file value="F:\SUMO\OptimalEmission-SUMO-ReinforcementLearning\2024-05-06-21-25-06\osm.net.xml.gz"/>
    <output-trip-file value="F:\SUMO\OptimalEmission-SUMO-ReinforcementLearning\2024-05-06-21-25-06\osm.bus.trips.xml"/>
    <route-file value="F:\SUMO\OptimalEmission-SUMO-ReinforcementLearning\2024-05-06-21-25-06\osm.bus.rou.xml"/>
    <prefix value="bus"/>
    <trip-attributes value="departLane=&quot;best&quot;"/>
    <fringe-start-attributes value="departSpeed=&quot;max&quot;"/>
    <vehicle-class value="bus"/>
    <fringe-factor value="5"/>
    <vclass value="bus"/>
    <via-edge-types value="highway.motorway,highway.motorway_link,highway.trunk_link,highway.primary_link,highway.secondary_link,highway.tertiary_link"/>
    <min-distance value="600.0"/>
    <min-distance.fringe value="10.0"/>
    <remove-loops value="True"/>
    <validate value="True"/>
    <end value="60000.0"/>
    <insertion-density value="4.0"/>
</configuration>
-->

<!-- generated on 2024-05-06 21:25:18 by Eclipse SUMO duarouter Version 1.19.0
<configuration xmlns:xsi="http://www.w3.org/2001/XMLSchema-instance" xsi:noNamespaceSchemaLocation="http://sumo.dlr.de/xsd/duarouterConfiguration.xsd">

    <input>
        <net-file value="F:\SUMO\OptimalEmission-SUMO-ReinforcementLearning\2024-05-06-21-25-06\osm.net.xml.gz"/>
        <route-files value="F:\SUMO\OptimalEmission-SUMO-ReinforcementLearning\2024-05-06-21-25-06\osm.bus.trips.xml"/>
    </input>

    <output>
        <output-file value="F:\SUMO\OptimalEmission-SUMO-ReinforcementLearning\2024-05-06-21-25-06\osm.bus.trips.xml.tmp"/>
        <alternatives-output value="NUL"/>
        <write-trips value="true"/>
    </output>

    <processing>
        <remove-loops value="true"/>
    </processing>

    <time>
        <begin value="0.0"/>
        <end value="60000.0"/>
    </time>

    <report>
        <no-warnings value="true"/>
        <ignore-errors value="true"/>
        <no-step-log value="true"/>
    </report>

</configuration>
-->

<routes xmlns:xsi="http://www.w3.org/2001/XMLSchema-instance" xsi:noNamespaceSchemaLocation="http://sumo.dlr.de/xsd/routes_file.xsd">
    <vType id="bus_bus" vClass="bus"/>
    <trip id="bus0" type="bus_bus" depart="0.00" departLane="best" from="196850607#0" to="1101961735#1"/>
    <trip id="bus1" type="bus_bus" depart="32.84" departLane="best" from="-4588219#2" to="-35578576#0"/>
    <trip id="bus2" type="bus_bus" depart="65.68" departLane="best" from="320462164#0" to="23755950#0"/>
    <trip id="bus3" type="bus_bus" depart="98.52" departLane="best" departSpeed="max" from="465376240#0" to="1151333056"/>
    <trip id="bus4" type="bus_bus" depart="131.36" departLane="best" from="320462164#2" to="1151333056"/>
    <trip id="bus5" type="bus_bus" depart="164.20" departLane="best" departSpeed="max" from="-1105574290" to="-320462164#1"/>
    <trip id="bus6" type="bus_bus" depart="197.03" departLane="best" from="437325055#1" to="-109902441"/>
    <trip id="bus7" type="bus_bus" depart="229.87" departLane="best" from="43231842#3" to="24242892#3"/>
    <trip id="bus8" type="bus_bus" depart="262.71" departLane="best" from="83517336#4" to="85255869#1"/>
    <trip id="bus9" type="bus_bus" depart="295.55" departLane="best" from="-114667396#2" to="-1155757392"/>
    <trip id="bus10" type="bus_bus" depart="328.39" departLane="best" from="-4597324#2" to="15971189"/>
    <trip id="bus11" type="bus_bus" depart="361.23" departLane="best" from="43233756#1" to="-1171295120#0"/>
    <trip id="bus12" type="bus_bus" depart="394.07" departLane="best" from="4588211#0" to="171423001#1"/>
    <trip id="bus13" type="bus_bus" depart="426.91" departLane="best" departSpeed="max" from="4611699#0" to="153698380#1"/>
    <trip id="bus15" type="bus_bus" depart="492.59" departLane="best" from="-1151333056" to="4597324#0"/>
    <trip id="bus16" type="bus_bus" depart="525.42" departLane="best" from="68711084#1" to="1105574291#0"/>
    <trip id="bus17" type="bus_bus" depart="558.26" departLane="best" from="4588222#2" to="340498976#8"/>
    <trip id="bus18" type="bus_bus" depart="591.10" departLane="best" from="-4611706#1" to="-4588211#1"/>
    <trip id="bus19" type="bus_bus" depart="623.94" departLane="best" from="-292429062#3" to="66071366#4"/>
    <trip id="bus20" type="bus_bus" depart="656.78" departLane="best" from="66071366#1" to="-1125869405#1"/>
    <trip id="bus21" type="bus_bus" depart="689.62" departLane="best" from="1252995263" to="-4412868#1"/>
    <trip id="bus22" type="bus_bus" depart="722.46" departLane="best" from="153698402#1" to="4611712"/>
    <trip id="bus23" type="bus_bus" depart="755.30" departLane="best" from="-930343901#3" to="-4611710#2"/>
    <trip id="bus24" type="bus_bus" depart="788.14" departLane="best" from="-1101961674#3" to="25776568#2"/>
    <trip id="bus25" type="bus_bus" depart="820.98" departLane="best" from="424323348" to="-1171295120#1"/>
    <trip id="bus26" type="bus_bus" depart="853.82" departLane="best" from="1155757393#1" to="1119838636#1"/>
    <trip id="bus27" type="bus_bus" depart="886.65" departLane="best" from="111833186#0" to="68647306#4"/>
    <trip id="bus28" type="bus_bus" depart="919.49" departLane="best" from="4611710#1" to="-4412868#2"/>
    <trip id="bus29" type="bus_bus" depart="952.33" departLane="best" from="-1127602336" to="-25945966"/>
    <trip id="bus31" type="bus_bus" depart="1018.01" departLane="best" departSpeed="max" from="-4610480#1" to="196850607#0"/>
    <trip id="bus32" type="bus_bus" depart="1050.85" departLane="best" departSpeed="max" from="35578576#0" to="1164203952#0"/>
    <trip id="bus33" type="bus_bus" depart="1083.69" departLane="best" from="1151333059#3" to="-474362271"/>
    <trip id="bus35" type="bus_bus" depart="1149.37" departLane="best" departSpeed="max" from="4610524#1" to="-1123106322#1"/>
    <trip id="bus36" type="bus_bus" depart="1182.21" departLane="best" from="4611710#2" to="681299268#1"/>
    <trip id="bus37" type="bus_bus" depart="1215.05" departLane="best" from="1123106516" to="1228446781#1"/>
    <trip id="bus38" type="bus_bus" depart="1247.88" departLane="best" departSpeed="max" from="935142777#0" to="196850609#0"/>
    <trip id="bus39" type="bus_bus" depart="1280.72" departLane="best" departSpeed="max" from="-4611712" to="154041909"/>
    <trip id="bus40" type="bus_bus" depart="1313.56" departLane="best" from="-1127602336" to="176043797"/>
    <trip id="bus41" type="bus_bus" depart="1346.40" departLane="best" departSpeed="max" from="4611699#0" to="1132163645#1"/>
    <trip id="bus42" type="bus_bus" depart="1379.24" departLane="best" from="-35557161#3" to="236092221#0"/>
    <trip id="bus43" type="bus_bus" depart="1412.08" departLane="best" from="68647306#6" to="131577613#2"/>
    <trip id="bus44" type="bus_bus" depart="1444.92" departLane="best" from="-1101961674#4" to="1125871619#2"/>
    <trip id="bus45" type="bus_bus" depart="1477.76" departLane="best" departSpeed="max" from="4611699#0" to="-437325055#2"/>
    <trip id="bus46" type="bus_bus" depart="1510.60" departLane="best" departSpeed="max" from="-23755950#2" to="1119938072#0"/>
    <trip id="bus47" type="bus_bus" depart="1543.44" departLane="best" from="-1101961674#3" to="4597324#1"/>
    <trip id="bus48" type="bus_bus" depart="1576.27" departLane="best" departSpeed="max" from="1238797610" to="-111833186#1"/>
    <trip id="bus49" type="bus_bus" depart="1609.11" departLane="best" departSpeed="max" from="935142777#0" to="4588219#3"/>
    <trip id="bus50" type="bus_bus" depart="1641.95" departLane="best" from="-4597324#2" to="-23755961"/>
    <trip id="bus51" type="bus_bus" depart="1674.79" departLane="best" from="1125871262#1" to="35557161#1"/>
    <trip id="bus52" type="bus_bus" depart="1707.63" departLane="best" from="-840229277#1" to="894814132"/>
    <trip id="bus53" type="bus_bus" depart="1740.47" departLane="best" from="111833186#0" to="1119837993"/>
    <trip id="bus54" type="bus_bus" depart="1773.31" departLane="best" departSpeed="max" from="1238797610" to="25776568#2"/>
    <trip id="bus55" type="bus_bus" depart="1806.15" departLane="best" departSpeed="max" from="-15971189" to="-4611708#2"/>
    <trip id="bus56" type="bus_bus" depart="1838.99" departLane="best" from="1132163645#1" to="4597324#3"/>
    <trip id="bus57" type="bus_bus" depart="1871.83" departLane="best" departSpeed="max" from="-15971189" to="-176273730#1"/>
    <trip id="bus58" type="bus_bus" depart="1904.67" departLane="best" from="-35557161#1" to="132600840#1"/>
    <trip id="bus59" type="bus_bus" depart="1937.50" departLane="best" departSpeed="max" from="465376240#0" to="-43231842#2"/>
    <trip id="bus60" type="bus_bus" depart="1970.34" departLane="best" from="320420913#0" to="171423001#2"/>
    <trip id="bus61" type="bus_bus" depart="2003.18" departLane="best" from="-292429056#2" to="251884680#1"/>
    <trip id="bus62" type="bus_bus" depart="2036.02" departLane="best" from="-35557161#3" to="1110752486"/>
    <trip id="bus63" type="bus_bus" depart="2068.86" departLane="best" from="-4611706#1" to="320420912#2"/>
    <trip id="bus64" type="bus_bus" depart="2101.70" departLane="best" from="-1132162834#0" to="-1125869405#0"/>
    <trip id="bus65" type="bus_bus" depart="2134.54" departLane="best" departSpeed="max" from="935142777#0" to="930343901#4"/>
    <trip id="bus66" type="bus_bus" depart="2167.38" departLane="best" from="-4412868#1" to="530085625#0"/>
    <trip id="bus67" type="bus_bus" depart="2200.22" departLane="best" from="-1101961735#0" to="930343901#0"/>
    <trip id="bus68" type="bus_bus" depart="2233.06" departLane="best" from="-4402037#0" to="-4611710#0"/>
    <trip id="bus69" type="bus_bus" depart="2265.89" departLane="best" departSpeed="max" from="-1228446781#4" to="1126241276#1"/>
    <trip id="bus70" type="bus_bus" depart="2298.73" departLane="best" from="1151333059#2" to="1249342905"/>
    <trip id="bus71" type="bus_bus" depart="2331.57" departLane="best" from="-4588219#1" to="15971189"/>
    <trip id="bus72" type="bus_bus" depart="2364.41" departLane="best" from="28251222#1" to="326116286#0"/>
    <trip id="bus73" type="bus_bus" depart="2397.25" departLane="best" from="1125871619#2" to="4611712"/>
    <trip id="bus74" type="bus_bus" depart="2430.09" departLane="best" from="-1101961674#4" to="4597324#0"/>
    <trip id="bus75" type="bus_bus" depart="2462.93" departLane="best" from="1079386660" to="340498976#2"/>
    <trip id="bus76" type="bus_bus" depart="2495.77" departLane="best" departSpeed="max" from="4610524#1" to="4611712"/>
    <trip id="bus77" type="bus_bus" depart="2528.61" departLane="best" departSpeed="max" from="35578576#0" to="4611708#1"/>
    <trip id="bus79" type="bus_bus" depart="2594.29" departLane="best" from="4611699#1" to="874528353#0"/>
    <trip id="bus80" type="bus_bus" depart="2627.12" departLane="best" from="437325055#1" to="4611707#1"/>
    <trip id="bus81" type="bus_bus" depart="2659.96" departLane="best" departSpeed="max" from="-1105574290" to="292429062#0"/>
    <trip id="bus82" type="bus_bus" depart="2692.80" departLane="best" departSpeed="max" from="-4611712" to="527714921#1"/>
    <trip id="bus83" type="bus_bus" depart="2725.64" departLane="best" from="4611708#2" to="4610480#1"/>
    <trip id="bus84" type="bus_bus" depart="2758.48" departLane="best" from="1119935543#0" to="-4611711#0"/>
    <trip id="bus85" type="bus_bus" depart="2791.32" departLane="best" departSpeed="max" from="43231842#0" to="-35578576#0"/>
    <trip id="bus86" type="bus_bus" depart="2824.16" departLane="best" departSpeed="max" from="-1105574290" to="292429062#3"/>
    <trip id="bus87" type="bus_bus" depart="2857.00" departLane="best" from="-4611711#0" to="4610480#1"/>
    <trip id="bus88" type="bus_bus" depart="2889.84" departLane="best" from="874528353#0" to="4597324#1"/>
    <trip id="bus89" type="bus_bus" depart="2922.68" departLane="best" from="-930343901#2" to="-1171295120#1"/>
    <trip id="bus90" type="bus_bus" depart="2955.52" departLane="best" from="68711084#1" to="1126241276#1"/>
    <trip id="bus91" type="bus_bus" depart="2988.35" departLane="best" from="874528353#2" to="-25945966"/>
    <trip id="bus92" type="bus_bus" depart="3021.19" departLane="best" from="-1151333060" to="1119838636#1"/>
    <trip id="bus93" type="bus_bus" depart="3054.03" departLane="best" from="-292429062#3" to="-4773029#3"/>
    <trip id="bus94" type="bus_bus" depart="3086.87" departLane="best" departSpeed="max" from="15977422#0" to="-1151333059#2"/>
    <trip id="bus95" type="bus_bus" depart="3119.71" departLane="best" from="437325056#0" to="251884680#0"/>
    <trip id="bus96" type="bus_bus" depart="3152.55" departLane="best" from="1151333059#3" to="4773029#4"/>
    <trip id="bus97" type="bus_bus" depart="3185.39" departLane="best" from="1159149106#0" to="25776568#2"/>
    <trip id="bus98" type="bus_bus" depart="3218.23" departLane="best" from="-23017852#0" to="-753316506#1"/>
    <trip id="bus99" type="bus_bus" depart="3251.07" departLane="best" departSpeed="max" from="4610524#1" to="4597324#3"/>
    <trip id="bus100" type="bus_bus" depart="3283.91" departLane="best" from="292429056#1" to="-4611710#1"/>
    <trip id="bus101" type="bus_bus" depart="3316.74" departLane="best" from="-1190781962#0" to="1119837993"/>
    <trip id="bus102" type="bus_bus" depart="3349.58" departLane="best" from="690322561" to="23755950#0"/>
    <trip id="bus103" type="bus_bus" depart="3382.42" departLane="best" departSpeed="max" from="-4610480#1" to="1228446781#1"/>
    <trip id="bus104" type="bus_bus" depart="3415.26" departLane="best" from="1151333059#3" to="4610524#0"/>
    <trip id="bus105" type="bus_bus" depart="3448.10" departLane="best" from="1123105979#1" to="4611712"/>
    <trip id="bus106" type="bus_bus" depart="3480.94" departLane="best" departSpeed="max" from="43231842#0" to="24913267#1"/>
    <trip id="bus107" type="bus_bus" depart="3513.78" departLane="best" departSpeed="max" from="-1132164217#3" to="-1151333060"/>
    <trip id="bus108" type="bus_bus" depart="3546.62" departLane="best" departSpeed="max" from="171484594#0" to="85255869#1"/>
    <trip id="bus109" type="bus_bus" depart="3579.46" departLane="best" from="-24913267#3" to="1101961735#1"/>
    <trip id="bus110" type="bus_bus" depart="3612.30" departLane="best" from="4610524#0" to="-1136657258#0"/>
    <trip id="bus111" type="bus_bus" depart="3645.14" departLane="best" departSpeed="max" from="109902441" to="176043797"/>
    <trip id="bus112" type="bus_bus" depart="3677.97" departLane="best" from="-23755961" to="24242892#2"/>
    <trip id="bus113" type="bus_bus" depart="3710.81" departLane="best" from="1151333059#2" to="1119837993"/>
    <trip id="bus114" type="bus_bus" depart="3743.65" departLane="best" from="43231842#3" to="4597324#3"/>
    <trip id="bus115" type="bus_bus" depart="3776.49" departLane="best" from="111833186#1" to="-43231842#1"/>
    <trip id="bus116" type="bus_bus" depart="3809.33" departLane="best" from="-23017852#1" to="930343901#0"/>
    <trip id="bus117" type="bus_bus" depart="3842.17" departLane="best" from="292429056#1" to="1151333056"/>
    <trip id="bus118" type="bus_bus" depart="3875.01" departLane="best" from="4588211#1" to="1228446781#1"/>
    <trip id="bus119" type="bus_bus" depart="3907.85" departLane="best" from="4773029#1" to="292429063"/>
    <trip id="bus120" type="bus_bus" depart="3940.69" departLane="best" departSpeed="max" from="171484594#0" to="-4588222#1"/>
    <trip id="bus121" type="bus_bus" depart="3973.53" departLane="best" departSpeed="max" from="-1132164217#3" to="4610524#0"/>
    <trip id="bus122" type="bus_bus" depart="4006.36" departLane="best" from="4588211#1" to="-66071366#2"/>
    <trip id="bus123" type="bus_bus" depart="4039.20" departLane="best" from="1149417521#1" to="-171484594#1"/>
    <trip id="bus124" type="bus_bus" depart="4072.04" departLane="best" from="-35557143#2" to="24242892#0"/>
    <trip id="bus125" type="bus_bus" depart="4104.88" departLane="best" departSpeed="max" from="109902441" to="1217865061#0"/>
    <trip id="bus126" type="bus_bus" depart="4137.72" departLane="best" from="-1101961674#2" to="4611712"/>
    <trip id="bus127" type="bus_bus" depart="4170.56" departLane="best" departSpeed="max" from="4611699#0" to="326116285#7"/>
    <trip id="bus128" type="bus_bus" depart="4203.40" departLane="best" from="-66071366#1" to="154041920"/>
    <trip id="bus129" type="bus_bus" depart="4236.24" departLane="best" from="-1101961674#2" to="292429063"/>
    <trip id="bus130" type="bus_bus" depart="4269.08" departLane="best" from="1176516118#1" to="15971189"/>
    <trip id="bus131" type="bus_bus" depart="4301.92" departLane="best" from="-326116285#4" to="-4611710#2"/>
    <trip id="bus132" type="bus_bus" depart="4334.76" departLane="best" from="1119937599#3" to="-15977422#1"/>
    <trip id="bus133" type="bus_bus" depart="4367.59" departLane="best" from="930343901#1" to="1253429075"/>
    <trip id="bus134" type="bus_bus" depart="4400.43" departLane="best" departSpeed="max" from="-1228446781#4" to="-108031933#1"/>
    <trip id="bus135" type="bus_bus" depart="4433.27" departLane="best" from="-111833186#0" to="1105574290"/>
    <trip id="bus136" type="bus_bus" depart="4466.11" departLane="best" from="342968607#1" to="1105574290"/>
    <trip id="bus138" type="bus_bus" depart="4531.79" departLane="best" from="437325055#1" to="114667396#3"/>
    <trip id="bus139" type="bus_bus" depart="4564.63" departLane="best" departSpeed="max" from="-1105574290" to="-1176516118#1"/>
    <trip id="bus140" type="bus_bus" depart="4597.47" departLane="best" departSpeed="max" from="935142777#0" to="-930343901#2"/>
    <trip id="bus141" type="bus_bus" depart="4630.31" departLane="best" from="196850609#0" to="154041920"/>
    <trip id="bus142" type="bus_bus" depart="4663.15" departLane="best" departSpeed="max" from="-1105574290" to="210668637#1"/>
    <trip id="bus143" type="bus_bus" depart="4695.99" departLane="best" from="210668637#0" to="15971189"/>
    <trip id="bus144" type="bus_bus" depart="4728.82" departLane="best" from="335462916" to="1126241276#1"/>
    <trip id="bus145" type="bus_bus" depart="4761.66" departLane="best" from="1151333059#2" to="1101961735#1"/>
    <trip id="bus146" type="bus_bus" depart="4794.50" departLane="best" from="24242892#1" to="176043797"/>
    <trip id="bus147" type="bus_bus" depart="4827.34" departLane="best" from="-1151333056" to="340498976#3"/>
    <trip id="bus148" type="bus_bus" depart="4860.18" departLane="best" from="194069450#0" to="-4588211#0"/>
    <trip id="bus149" type="bus_bus" depart="4893.02" departLane="best" departSpeed="max" from="25945965" to="1119838636#1"/>
    <trip id="bus150" type="bus_bus" depart="4925.86" departLane="best" from="320420916#0" to="753316506#1"/>
    <trip id="bus151" type="bus_bus" depart="4958.70" departLane="best" from="1159149106#0" to="1132163645#4"/>
    <trip id="bus152" type="bus_bus" depart="4991.54" departLane="best" from="1110749336#1" to="-1171295120#0"/>
    <trip id="bus153" type="bus_bus" depart="5024.38" departLane="best" from="4588211#0" to="4597324#3"/>
    <trip id="bus154" type="bus_bus" depart="5057.21" departLane="best" from="4588211#1" to="1151333056"/>
    <trip id="bus155" type="bus_bus" depart="5090.05" departLane="best" from="1119937599#1" to="168937986"/>
    <trip id="bus156" type="bus_bus" depart="5122.89" departLane="best" from="4610524#0" to="-25945966"/>
    <trip id="bus157" type="bus_bus" depart="5155.73" departLane="best" departSpeed="max" from="-4611712" to="4611707#1"/>
    <trip id="bus158" type="bus_bus" depart="5188.57" departLane="best" from="-1101961674#3" to="681299268#1"/>
    <trip id="bus159" type="bus_bus" depart="5221.41" departLane="best" from="-1136657258#0" to="25776568#2"/>
    <trip id="bus160" type="bus_bus" depart="5254.25" departLane="best" from="24242892#1" to="196850608#1"/>
    <trip id="bus161" type="bus_bus" depart="5287.09" departLane="best" from="1125871619#3" to="35557161#4"/>
    <trip id="bus162" type="bus_bus" depart="5319.93" departLane="best" from="24242892#2" to="-4611711#1"/>
    <trip id="bus163" type="bus_bus" depart="5352.77" departLane="best" from="1155227488" to="1119837993"/>
    <trip id="bus165" type="bus_bus" depart="5418.44" departLane="best" departSpeed="max" from="-23755950#2" to="132600840#0"/>
    <trip id="bus166" type="bus_bus" depart="5451.28" departLane="best" from="-108031933#1" to="25776568#2"/>
    <trip id="bus167" type="bus_bus" depart="5484.12" departLane="best" from="-23755961" to="-35578576#0"/>
    <trip id="bus168" type="bus_bus" depart="5516.96" departLane="best" from="4611710#0" to="132600840#0"/>
    <trip id="bus169" type="bus_bus" depart="5549.80" departLane="best" departSpeed="max" from="-23755950#2" to="-111833186#1"/>
    <trip id="bus170" type="bus_bus" depart="5582.64" departLane="best" from="690322561" to="1127602336"/>
    <trip id="bus171" type="bus_bus" depart="5615.48" departLane="best" from="-1132163645#1" to="176043797"/>
    <trip id="bus172" type="bus_bus" depart="5648.32" departLane="best" from="1253429075" to="-4611710#2"/>
    <trip id="bus173" type="bus_bus" depart="5681.16" departLane="best" departSpeed="max" from="935142777#0" to="132600840#0"/>
    <trip id="bus174" type="bus_bus" depart="5714.00" departLane="best" from="35557143#2" to="15971189"/>
    <trip id="bus175" type="bus_bus" depart="5746.83" departLane="best" from="424323348" to="-35578576#0"/>
    <trip id="bus176" type="bus_bus" depart="5779.67" departLane="best" from="930343902#1" to="-4611711#0"/>
    <trip id="bus177" type="bus_bus" depart="5812.51" departLane="best" from="171423001#2" to="168937986"/>
    <trip id="bus179" type="bus_bus" depart="5878.19" departLane="best" from="320420913#0" to="-4611706#1"/>
    <trip id="bus181" type="bus_bus" depart="5943.87" departLane="best" from="24242892#0" to="-4773029#3"/>
    <trip id="bus182" type="bus_bus" depart="5976.71" departLane="best" from="42102542#1" to="176043797"/>
    <trip id="bus183" type="bus_bus" depart="6009.55" departLane="best" from="-1101961737" to="1228446781#1"/>
    <trip id="bus184" type="bus_bus" depart="6042.39" departLane="best" departSpeed="max" from="-4597324#3" to="-158023913#1"/>
    <trip id="bus185" type="bus_bus" depart="6075.23" departLane="best" from="1125871619#4" to="114667396#2"/>
    <trip id="bus186" type="bus_bus" depart="6108.06" departLane="best" departSpeed="max" from="-1110752632#3" to="1119838636#1"/>
    <trip id="bus187" type="bus_bus" depart="6140.90" departLane="best" from="-4611708#2" to="-437325055#2"/>
    <trip id="bus188" type="bus_bus" depart="6173.74" departLane="best" departSpeed="max" from="78298215#0" to="930343902#1"/>
    <trip id="bus189" type="bus_bus" depart="6206.58" departLane="best" departSpeed="max" from="-1110752632#3" to="320420916#0"/>
    <trip id="bus190" type="bus_bus" depart="6239.42" departLane="best" from="66071366#2" to="-25945966"/>
    <trip id="bus191" type="bus_bus" depart="6272.26" departLane="best" from="23017853" to="4610480#1"/>
    <trip id="bus192" type="bus_bus" depart="6305.10" departLane="best" from="-4611711#0" to="24242892#0"/>
    <trip id="bus193" type="bus_bus" depart="6337.94" departLane="best" departSpeed="max" from="-4597324#3" to="66071379#1"/>
    <trip id="bus194" type="bus_bus" depart="6370.78" departLane="best" from="111833186#0" to="-4773029#3"/>
    <trip id="bus196" type="bus_bus" depart="6436.46" departLane="best" from="1217865061#0" to="47935842"/>
    <trip id="bus197" type="bus_bus" depart="6469.29" departLane="best" from="1171295120#1" to="85255869#1"/>
    <trip id="bus198" type="bus_bus" depart="6502.13" departLane="best" from="168935756#0" to="-43231842#0"/>
    <trip id="bus199" type="bus_bus" depart="6534.97" departLane="best" departSpeed="max" from="-15971189" to="1228446781#1"/>
    <trip id="bus200" type="bus_bus" depart="6567.81" departLane="best" departSpeed="max" from="1238797610" to="-1151333059#2"/>
    <trip id="bus201" type="bus_bus" depart="6600.65" departLane="best" departSpeed="max" from="935142777#0" to="465376239"/>
    <trip id="bus202" type="bus_bus" depart="6633.49" departLane="best" from="236092221#1" to="-131577612#3"/>
    <trip id="bus203" type="bus_bus" depart="6666.33" departLane="best" from="4588219#1" to="114667396#3"/>
    <trip id="bus204" type="bus_bus" depart="6699.17" departLane="best" from="28251222#1" to="-1151333059#1"/>
    <trip id="bus205" type="bus_bus" depart="6732.01" departLane="best" from="-930343901#1" to="-43231842#1"/>
    <trip id="bus206" type="bus_bus" depart="6764.85" departLane="best" from="66071373#1" to="-1151333059#0"/>
    <trip id="bus207" type="bus_bus" depart="6797.68" departLane="best" from="4611711#0" to="4610480#1"/>
    <trip id="bus208" type="bus_bus" depart="6830.52" departLane="best" departSpeed="max" from="109902441" to="555858098#2"/>
    <trip id="bus209" type="bus_bus" depart="6863.36" departLane="best" from="-4597324#1" to="-4611710#0"/>
    <trip id="bus210" type="bus_bus" depart="6896.20" departLane="best" departSpeed="max" from="1238797610" to="1228446781#1"/>
    <trip id="bus211" type="bus_bus" depart="6929.04" departLane="best" from="111833186#0" to="-66071366#3"/>
    <trip id="bus212" type="bus_bus" depart="6961.88" departLane="best" departSpeed="max" from="-23755950#2" to="24242892#2"/>
    <trip id="bus213" type="bus_bus" depart="6994.72" departLane="best" from="437325056#0" to="-1110748916#1"/>
    <trip id="bus214" type="bus_bus" depart="7027.56" departLane="best" departSpeed="max" from="-1110752632#3" to="1170522567#0"/>
    <trip id="bus216" type="bus_bus" depart="7093.24" departLane="best" from="4611710#0" to="1119936840#1"/>
    <trip id="bus217" type="bus_bus" depart="7126.08" departLane="best" from="1119938072#0" to="840229275#1"/>
    <trip id="bus218" type="bus_bus" depart="7158.91" departLane="best" departSpeed="max" from="-4611712" to="24242892#0"/>
    <trip id="bus219" type="bus_bus" depart="7191.75" departLane="best" from="196850608#2" to="4597324#3"/>
    <trip id="bus220" type="bus_bus" depart="7224.59" departLane="best" from="4611708#2" to="-1115641285#1"/>
    <trip id="bus221" type="bus_bus" depart="7257.43" departLane="best" from="-326116286#1" to="1119838636#1"/>
    <trip id="bus222" type="bus_bus" depart="7290.27" departLane="best" from="4611708#2" to="1119937599#1"/>
    <trip id="bus223" type="bus_bus" depart="7323.11" departLane="best" from="24242892#3" to="4611712"/>
    <trip id="bus224" type="bus_bus" depart="7355.95" departLane="best" departSpeed="max" from="-1110752632#3" to="389101365#1"/>
    <trip id="bus225" type="bus_bus" depart="7388.79" departLane="best" departSpeed="max" from="-4597324#3" to="1105574290"/>
    <trip id="bus226" type="bus_bus" depart="7421.63" departLane="best" from="1263480787#1" to="35557161#4"/>
    <trip id="bus227" type="bus_bus" depart="7454.47" departLane="best" from="-35557161#4" to="465376239"/>
    <trip id="bus228" type="bus_bus" depart="7487.30" departLane="best" departSpeed="max" from="-15971189" to="1119936840#1"/>
    <trip id="bus229" type="bus_bus" depart="7520.14" departLane="best" from="-4773029#2" to="154041909"/>
    <trip id="bus230" type="bus_bus" depart="7552.98" departLane="best" from="43231842#3" to="4597324#2"/>
    <trip id="bus231" type="bus_bus" depart="7585.82" departLane="best" from="1125869405#3" to="-43231842#0"/>
    <trip id="bus232" type="bus_bus" depart="7618.66" departLane="best" departSpeed="max" from="935142777#0" to="-4611708#1"/>
    <trip id="bus233" type="bus_bus" depart="7651.50" departLane="best" from="-4588219#2" to="1261128304"/>
    <trip id="bus234" type="bus_bus" depart="7684.34" departLane="best" from="111833185#1" to="15971189"/>
    <trip id="bus235" type="bus_bus" depart="7717.18" departLane="best" from="1126237668#1" to="4611712"/>
    <trip id="bus236" type="bus_bus" depart="7750.02" departLane="best" departSpeed="max" from="-4597324#3" to="42102542#1"/>
    <trip id="bus237" type="bus_bus" depart="7782.86" departLane="best" from="210668637#1" to="4588222#1"/>
    <trip id="bus238" type="bus_bus" depart="7815.70" departLane="best" departSpeed="max" from="171484594#0" to="4611712"/>
    <trip id="bus239" type="bus_bus" depart="7848.53" departLane="best" departSpeed="max" from="-4597324#3" to="292429063"/>
    <trip id="bus240" type="bus_bus" depart="7881.37" departLane="best" from="-23017852#2" to="-15977422#1"/>
    <trip id="bus241" type="bus_bus" depart="7914.21" departLane="best" from="1151333061#1" to="465376239"/>
    <trip id="bus242" type="bus_bus" depart="7947.05" departLane="best" from="4412868#2" to="1132163645#4"/>
    <trip id="bus243" type="bus_bus" depart="7979.89" departLane="best" from="43231842#3" to="292429063"/>
    <trip id="bus244" type="bus_bus" depart="8012.73" departLane="best" from="-85255869#2" to="-171484594#1"/>
    <trip id="bus245" type="bus_bus" depart="8045.57" departLane="best" from="874528353#0" to="4610480#1"/>
    <trip id="bus246" type="bus_bus" depart="8078.41" departLane="best" from="1151333061#1" to="389101365#1"/>
    <trip id="bus247" type="bus_bus" depart="8111.25" departLane="best" from="1252995263" to="465376239"/>
    <trip id="bus248" type="bus_bus" depart="8144.09" departLane="best" from="11483007#0" to="4611708#2"/>
    <trip id="bus249" type="bus_bus" depart="8176.93" departLane="best" departSpeed="max" from="-1228446781#4" to="1123106516"/>
    <trip id="bus250" type="bus_bus" depart="8209.76" departLane="best" from="23017853" to="292429063"/>
    <trip id="bus251" type="bus_bus" depart="8242.60" departLane="best" departSpeed="max" from="78298215#0" to="1119837993"/>
    <trip id="bus252" type="bus_bus" depart="8275.44" departLane="best" from="-326116285#4" to="23017852#0"/>